         100
Cu Cu     -308.304715        0.000000     -308.304715   0.05656-308.30472
Cu     -5.04251889      2.05392509      0.23358425
Cu     -3.94686019     -2.60653341     -3.91034794
Cu     -1.35866020     -1.01586802     -1.04598381
Cu      0.92279187      0.55208630      1.84434718
Cu      4.63173340      0.91620737     -1.19535068
Cu      3.64931153      3.56269281      2.86415183
Cu      1.29504665      0.62316569     -5.82824144
Cu      2.63268841     -2.02174221     -0.90121438
Cu      4.19453052     -1.19107789     -2.56321872
Cu     -2.50075597      1.38080986      4.29873775
Cu      3.89200897      1.06936659     -3.65523439
Cu      1.77201043     -1.79524086      1.47175265
Cu      3.63731576      2.54797424      0.57749996
Cu      1.80910790     -0.78010141      3.69806422
Cu     -0.05286139      0.92118669     -2.06685593
Cu      3.10645328      1.14981853      2.68156778
Cu     -0.53648546      0.88595680      5.80843115
Cu     -4.15918985     -0.46248628      3.73911976
Cu     -1.01234347      2.30148453     -3.86614095
Cu      2.26368931     -0.77060821     -4.15815946
Cu     -4.36340456      1.84008636      2.64910188
Cu     -2.26262210     -0.93038773      5.32415898
Cu     -4.26057140      1.92164442     -2.17241660
Cu      1.90727935      0.29494942      5.93007653
Cu     -1.49782015     -3.31048657      4.96143363
Cu     -0.42485710      3.40359538      0.38526254
Cu     -2.87397735      3.78376587     -3.14896779
Cu     -2.35180271     -4.42549150     -3.17551251
Cu      0.28377677     -2.80863289     -0.37294519
Cu      1.95235524      5.28387518      2.07624264
Cu      1.17383878     -4.16467991      1.45174364
Cu      5.23151136      1.75694160      3.56366028
Cu     -3.00765225     -4.33245191      3.09837442
Cu      0.43938711      3.37247010     -2.03348914
Cu     -2.25948637      4.94562338      1.03404124
Cu      0.17521783     -2.62183130      3.20543211
Cu     -0.87395361      2.10608674      2.53336539
Cu      0.97355075     -3.87750083      5.10193886
Cu      0.20302421     -1.52307416      5.50711170
Cu     -1.31289370     -3.63503297      1.36553672
Cu     -1.45233842      4.85172626     -1.33314861
Cu     -5.90423584     -2.10633878     -2.48188022
Cu      0.64912025     -1.47362376     -2.46853582
Cu     -1.89083268      2.42560929     -1.44021925
Cu      1.78092704     -5.43363300      3.40254538
Cu     -0.93683110      1.01642498      0.30417680
Cu      1.56156864      3.98255872      4.18727089
Cu      3.21407111      2.21965194      4.93772338
Cu      0.06101638      5.75115939      0.49842915
Cu     -0.36019496     -0.10122279     -4.27686805
Cu      2.98793637      2.70490757     -1.92299462
Cu     -2.68064924      3.64227141      3.15739115
Cu      3.53504041     -3.36283562      0.94380627
Cu     -2.69477051     -5.68262757     -1.02213780
Cu      2.01136956     -4.40334138     -0.93055673
Cu     -5.30899869     -2.32142107     -0.07444182
Cu      4.83985418     -1.36678791     -0.06471450
Cu      0.04147133     -3.90197893     -2.56961317
Cu     -0.36470775      4.53609530      2.64956635
Cu     -2.29812792     -1.99225135      3.06138797
Cu      1.03561310      1.60625110      4.06741017
Cu      4.01422099     -1.22036289      2.35197302
Cu     -4.34093011     -3.91544974     -1.76603052
Cu     -3.34072977      1.72786512     -4.48880544
Cu     -4.63499616     -2.53030526      2.38811526
Cu     -0.70227368     -1.25911029      1.35368837
Cu     -2.70675110     -0.66775169     -4.93767187
Cu      1.46278063      2.93265097      1.94267070
Cu      1.49541934      1.76425884     -3.73700785
Cu      3.02736752      0.12817984      0.47252638
Cu      2.37780567     -3.05299957     -3.09504662
Cu      2.64255475     -2.07661394      5.55574550
Cu     -5.52432641     -0.04345194     -1.13932059
Cu     -3.70588673     -4.15974935      0.67579081
Cu     -2.75282533      2.56623805      0.94665740
Cu     -0.61184166     -4.96213640      3.32871367
Cu      0.85972341     -0.48215867     -0.31131791
Cu     -1.61627855     -2.08693034     -3.25435559
Cu      2.67014530     -3.15147949      3.34373100
Cu      5.22187804      0.74608869      1.32433672
Cu     -3.01781609     -1.78482818      0.67329569
Cu     -2.56001104      0.29112304      2.03093143
Cu      0.32913722     -6.41054651      1.60544139
Cu     -0.75177383      3.15805947      4.74434022
Cu      1.92781135      4.27963249     -0.18086865
Cu     -2.05223690     -5.92730724      1.37262549
Cu     -3.90748965     -2.71703733      4.76482712
Cu      1.39631186      1.88281595     -0.27544271
Cu     -2.01248506     -3.36101862     -1.03013623
Cu     -3.72919187      3.96094907     -0.78909650
Cu     -3.62774033     -1.55664257     -1.74704520
Cu     -3.24318933      0.50663565     -0.39751849
Cu     -4.67876864     -0.19171536     -3.50665792
Cu      0.43378729     -2.44407421     -4.66393505
Cu      3.99284731     -0.14259375      4.61050043
Cu     -0.65439752     -0.19688990      3.60361877
Cu     -0.36433351     -5.20080931     -0.40794671
Cu     -2.35627683      0.37215597     -2.76652052
Cu     -4.91187262     -0.24163129      1.31930584
Cu      2.37798516      0.29941246     -1.95936834
