         100
Cu Cu     -308.265958        0.000000     -308.265958   0.05656-308.26596
Cu     -5.08374370      2.00924496      0.25380127
Cu     -3.97672059     -2.60774087     -3.96127204
Cu     -1.39161113     -1.01068591     -1.03241803
Cu      0.90386484      0.51943736      1.82390815
Cu      4.59217627      0.94260005     -1.23036770
Cu      3.61073626      3.53831186      2.86173188
Cu      1.24051252      0.68052779     -5.84574332
Cu      2.61363023     -2.00861606     -0.96538871
Cu      4.16480232     -1.15423741     -2.62201943
Cu     -2.51928502      1.29808503      4.30607496
Cu      3.83919627      1.11361916     -3.68703926
Cu      1.75320076     -1.83072521      1.41174680
Cu      3.59441609      2.54524001      0.56403179
Cu      1.80879103     -0.83118431      3.64932966
Cu     -0.09648071      0.91668215     -2.08411682
Cu      3.08689820      1.12432900      2.65572507
Cu     -0.53822970      0.79453959      5.80062936
Cu     -4.16805463     -0.54999132      3.73092152
Cu     -1.06282010      2.30606092     -3.86944894
Cu      2.21921218     -0.73642958     -4.19744722
Cu     -4.39305255      1.76810664      2.66578103
Cu     -2.25120133     -1.03274607      5.29836386
Cu     -4.30805428      1.90204048     -2.16542424
Cu      1.90921821      0.21813464      5.89414994
Cu     -1.46491063     -3.40769746      4.88320049
Cu     -0.47140250      3.38973556      0.40285532
Cu     -2.92785587      3.77057865     -3.12938280
Cu     -2.36019804     -4.40898544     -3.27923564
Cu      0.27665884     -2.82759880     -0.40748347
Cu      1.89812634      5.25607154      2.10152254
Cu      1.19631972     -4.23221829      1.43867378
Cu      5.21147826      1.73953997      3.53345542
Cu     -2.95137530     -4.40530204      3.03665947
Cu      0.37844201      3.37656353     -2.02399792
Cu     -2.31632890      4.90769643      1.07553454
Cu      0.15658433     -2.63280668      3.13614931
Cu     -0.90219065      2.05980767      2.54029155
Cu      0.21929339     -1.61216581      5.45730051
Cu     -3.27889758      0.48518666     -0.39897177
Cu     -1.30896865     -3.66817867      1.29671673
Cu     -1.51614172      4.84086105     -1.29791867
Cu     -5.93636250     -2.12211471     -2.50464825
Cu      0.62396180     -1.46637673     -2.50535318
Cu     -1.93560354      2.41132852     -1.43079234
Cu      1.01118000     -3.94212244      4.94881641
Cu     -1.92762165     -3.04260571     -5.32991192
Cu      1.52685655      3.92809022      4.19975259
Cu      3.19734277      2.16829127      4.92304744
Cu     -0.00306100      5.73667877      0.54124504
Cu     -0.40751713     -0.09716858     -4.30953306
Cu      2.93381967      2.72877983     -1.93058145
Cu     -2.71704227      3.57268291      3.18958450
Cu      3.54106674     -3.35074808      0.84746771
Cu     -2.70757922     -5.69648539     -1.11931473
Cu      1.99848255     -4.39900278     -0.98332606
Cu     -5.33546108     -2.36600274     -0.09888415
Cu      4.82483344     -1.34764199     -0.13214362
Cu      0.01362637     -3.87932126     -2.65792909
Cu     -0.41102542      4.48993694      2.68040783
Cu     -2.30532003     -2.04866533      3.02208762
Cu      1.01962613      1.54982501      4.05718411
Cu      3.99669462     -1.24658467      2.29338091
Cu     -4.35471609     -3.92965519     -1.82372562
Cu     -3.38678195      1.72337494     -4.49353777
Cu     -4.63566058     -2.61343624      2.36278172
Cu     -0.72529627     -1.27840079      1.32187190
Cu     -2.72974456     -0.68793891     -4.98326390
Cu      1.42463452      2.90321768      1.94370601
Cu      1.44139184      1.79550685     -3.74498375
Cu      3.00062113      0.12101273      0.43775190
Cu      2.35499704     -3.03368177     -3.15551596
Cu      2.66248610     -2.13868652      5.48297665
Cu     -5.56117201     -0.07111414     -1.14284568
Cu     -3.71487927     -4.19954174      0.61737544
Cu     -2.79340275      2.52923057      0.96485739
Cu     -0.51734353     -5.01237858      3.20170678
Cu      0.83431151     -0.48908628     -0.34412089
Cu     -1.65049932     -2.03311947     -3.20144757
Cu      2.66207134     -3.19832447      3.25223783
Cu      5.19443439      0.74329138      1.28721094
Cu     -3.04284363     -1.82578377      0.64842901
Cu     -2.58390502      0.24420304      2.02205344
Cu      0.28418491     -6.45629092      1.41130212
Cu     -0.77656082      3.07931861      4.76329266
Cu      1.86874203      4.27865145     -0.16730838
Cu     -2.06372342     -5.95915818      1.26810552
Cu     -3.88410613     -2.82281137      4.72624206
Cu      1.35394916      1.87794477     -0.28690410
Cu     -2.03264455     -3.37252444     -1.08451180
Cu     -3.78143819      3.92725184     -0.76157251
Cu     -3.66795929     -1.56670854     -1.76250159
Cu     -0.96349552      1.00766423      0.30260296
Cu     -4.71144265     -0.20202361     -3.52418446
Cu      0.38093741     -2.42619862     -4.73200630
Cu      3.99261960     -0.18398107      4.55989886
Cu     -0.66534849     -0.24698648      3.58404243
Cu     -0.37922326     -5.19831812     -0.52421035
Cu     -2.39964112      0.37077419     -2.77861779
Cu     -4.93520630     -0.30297654      1.31539786
Cu      2.34041188      0.31871842     -1.98878247
