         100
Cu Cu     -307.096481        0.000000     -307.096481   0.12335-307.09648
Cu     -3.31348123      4.24490357      1.05909383
Cu     -3.72431133     -2.25733531     -3.01228429
Cu     -1.44810585      0.00682226     -0.72788970
Cu      4.14274287     -0.37326798      2.74699948
Cu      4.94968650      0.99674612     -3.84810446
Cu      0.16394343      0.48346965      6.12387012
Cu      2.64861833     -0.74514552     -5.41275088
Cu      4.86672106     -2.12680728     -0.09475884
Cu      3.81671644     -3.00300120     -2.16823146
Cu     -3.64295489      2.46576420      4.89732185
Cu      3.17907416      1.66459981     -5.48423355
Cu      0.15372384      0.23895564     -3.70788872
Cu      3.06842702      3.59880418     -0.74956626
Cu     -1.54842735      0.01133994     -5.50768675
Cu     -0.96805880      1.81049590     -2.32117262
Cu      4.79171326      0.28740432      0.43513860
Cu     -0.06376767      1.96616711     -0.01184717
Cu     -4.42586099      0.21722200      3.87512826
Cu     -1.12929846      2.26004470     -4.70995001
Cu      2.75122208     -3.28330835     -4.46115769
Cu     -4.04344270      0.13169239      1.36678469
Cu     -0.16313448     -0.06116183      3.84033494
Cu     -2.37979149      2.01166617      0.91160076
Cu     -1.16143169     -1.57329555      5.71929087
Cu     -2.40560138     -3.68010445      3.05625790
Cu     -0.79331346      4.08373757      1.25731566
Cu     -2.82921594      3.36218402     -3.14109567
Cu     -2.10521767     -4.13497847     -3.06116323
Cu      1.64493847     -2.51404056     -0.98809254
Cu      1.20345130      2.05823153      4.53624930
Cu      3.53134432      2.97973148     -3.37883387
Cu      1.18362914     -1.71805332      5.30200785
Cu     -4.78426427      2.43702403      0.17709510
Cu     -0.42776835      4.04445491     -3.02095070
Cu     -3.23876490      1.54749489     -1.45050835
Cu      1.42903444      2.29131809     -1.97230279
Cu     -0.19794725      1.94810922      2.44303386
Cu     -0.60412295     -1.82726009     -2.39252767
Cu     -2.18090005      3.60806387      3.15753552
Cu     -1.25886916     -4.11966174      0.89216951
Cu     -4.12035370      4.22106331     -1.27984905
Cu     -5.84427876     -1.80952029     -1.82504644
Cu      1.73854578     -1.61260361     -3.20944561
Cu     -1.80704748      3.63589628     -0.90474847
Cu     -0.39960888     -1.99080643      0.14065813
Cu     -1.76940440     -2.23344322     -4.53111547
Cu     -2.39684910      0.45732765      5.57882123
Cu      3.62891817     -2.02487589      4.52949689
Cu      0.60612589      4.28445130     -0.76290256
Cu      2.56295401      0.68189075     -3.36891156
Cu      1.23983492      2.67132440     -4.32754141
Cu     -1.08999852      2.42280520      4.98174456
Cu      3.78069195     -2.86980777      2.21464498
Cu     -2.52087710     -5.24594106     -0.87798126
Cu      3.27873296     -4.04210297      0.01145901
Cu     -5.13930842     -2.08410236      0.48372059
Cu      5.65192257     -0.47507538     -1.85886075
Cu     -0.29339944     -4.08867309     -1.42166758
Cu      0.37254088      4.06456265      3.43255499
Cu     -4.49453927     -2.11638920      2.82540256
Cu      2.63016747      0.18401577      4.80073513
Cu      2.83249276     -1.15742130      0.77597689
Cu     -4.54342507     -3.82880937     -1.29566486
Cu     -3.45295807      1.45875152     -4.41759778
Cu      2.44925295      1.23532109      0.01505845
Cu     -0.44681701     -2.24975265      2.62475294
Cu     -3.78742050     -0.89488288     -5.03148563
Cu      2.84900766      3.38402078      3.33298371
Cu      0.81952837      0.85068545     -5.92546712
Cu      4.03433892      2.46605029      1.33506860
Cu      1.97736300     -4.56083744     -2.24344208
Cu     -0.45176517     -3.58814157      4.63561401
Cu     -5.66524603      0.39659584     -0.67690277
Cu     -3.79293939     -4.15234025      1.01017568
Cu     -4.30905558      2.40036485      2.54003885
Cu      1.42791282     -3.09090362      1.38893666
Cu      0.90450891     -0.10437801     -1.35082583
Cu     -2.29003012     -0.20141658     -3.09310062
Cu      1.87937953     -3.56223935      3.83043842
Cu      4.27576162      1.60704513     -1.55736159
Cu     -2.72553964     -2.04107187      1.20112608
Cu     -2.34417968      1.20988760      3.30022073
Cu      0.18930070     -4.84526394      2.63270370
Cu     -1.51067812     -0.14697223      1.65135490
Cu      1.91936739      4.60977781     -2.78073822
Cu      4.25767313     -1.30156803     -3.75558154
Cu     -2.42305927     -1.24431823      3.69182327
Cu      1.60563260      3.28644179      1.27392848
Cu     -2.37298436     -2.83593053     -1.01710435
Cu     -5.18025879      2.38738076     -2.48811001
Cu     -3.66019684     -0.85073946     -0.95572058
Cu      2.26198110      1.16093713      2.51901683
Cu     -4.78406614      0.04333344     -2.97046060
Cu      0.31570936     -3.59506630     -3.81509870
Cu      1.82895391     -1.27166336      3.00495112
Cu      0.42172531     -1.61809443     -5.32531227
Cu      1.06323884     -5.16516109      0.22611409
Cu      2.64302732     -5.10755451      2.13439599
Cu      0.73277294     -0.09706098      1.15639303
Cu      3.31083658     -0.67281992     -1.51183647
