         100
Cu Cu     -309.462066        0.000000     -309.462066   0.06250-309.46207
Cu      1.52848246      2.49911767     -1.23918712
Cu      0.63729034      2.15627771      2.12179973
Cu     -0.15683489      1.08467006     -0.04431948
Cu     -0.93119170      2.49728820     -1.83367595
Cu      2.56232831     -3.20346549      7.94917354
Cu     -2.65368695     -5.01387889      1.26471802
Cu     -1.08036106      3.14442234      3.65609622
Cu      0.33100193      0.15606044      6.50281007
Cu     -3.60964534     -1.26040897     -0.23045561
Cu      0.65623878     -0.32455716      1.75506464
Cu     -4.04136725      0.74990500      1.36991897
Cu     -4.64689340     -3.37528313      7.66776065
Cu     -0.25838098     -4.77069383      0.33219288
Cu     -0.09721673     -2.98809451      4.74864338
Cu     -1.21096721     -0.98914230     -1.19060711
Cu     -0.60606622     -2.16310267      7.00276817
Cu     -0.22875363      0.94608637      8.76904197
Cu      2.28987641      1.05537816      0.60170030
Cu      3.06561139     -1.60582655      3.96436736
Cu     -0.18282708      3.59935623      0.27730692
Cu     -4.01942696      3.22574512      1.80661684
Cu     -4.37346243     -3.93078634      2.85635759
Cu      2.18487403     -3.97413020      4.53628865
Cu     -0.36064073     -2.35827698      0.72178212
Cu      0.71810447      4.22413625      4.98939238
Cu     -1.45724441     -0.86599146      5.11124762
Cu      5.12231089     -2.09873772      1.24382505
Cu     -4.48325515     -3.55159634      0.34948407
Cu     -1.54809478      1.57931757      5.54952276
Cu     -3.19628286      1.75036426      3.59848077
Cu     -4.82188062     -1.96786111      4.49243855
Cu      1.70379104     -1.96445864      6.08560983
Cu     -4.20064356      0.95465772      7.75373185
Cu      4.79775984     -0.17847841      2.80728392
Cu      0.24153785     -3.05429611     -1.49955941
Cu     -2.15048075     -3.33335534     -0.63073766
Cu     -3.65622607      0.14652147      5.45398154
Cu      2.14907728      1.15916635      7.83289961
Cu      2.95309197      0.42295740     -1.64502167
Cu      1.36734508     -5.03916582      2.30118018
Cu     -1.15891586     -1.34537984      9.29737541
Cu      2.50743760      0.73808753      3.07180925
Cu     -1.15553183      5.56261456      4.02310982
Cu     -3.63161160     -1.34242824      8.69510068
Cu      1.24221872     -2.63631821      2.66107717
Cu     -2.10013166      2.36186051      7.82029994
Cu      0.80051109      1.78865273      4.62538728
Cu      0.83319239     -0.67107361      4.21196681
Cu     -0.85566635     -4.00237057      2.58344748
Cu      0.24728272     -3.39912167      8.87915955
Cu     -2.00543569     -0.08238595      7.36324792
Cu     -3.06900879     -2.14738770      6.37868992
Cu     -5.27400714     -1.11003679      6.80526602
Cu      1.90814908     -3.35842646      0.39688223
Cu      4.32771641      1.74109513      4.40729732
Cu     -1.84717010      2.11992480      1.46924182
Cu      2.89213952     -1.23074066      1.50594602
Cu     -2.48309205     -5.36680318      3.81772292
Cu     -4.16571252     -4.22836249      5.41595634
Cu      4.57296982      0.18706957      0.30858540
Cu     -2.23867022     -3.40596424      8.34409264
Cu      1.21620564     -1.13490660      8.42808179
Cu     -2.55641490      0.70092799      9.61899110
Cu     -0.77226266     -6.36993025      2.23653248
Cu      3.93716428      2.43066846     -0.58470778
Cu     -1.72275773     -4.32139862      6.06677620
Cu     -1.80967293     -0.31954211      1.10861222
Cu     -5.79801042      1.17284696      5.80983789
Cu      0.26989602      2.63488874      6.93064467
Cu      4.15563321      2.11742472      1.87587031
Cu      4.43521110      1.32593213      6.86137770
Cu      3.53879893     -0.93244686      7.43718160
Cu      3.99354887     -2.84802053      5.87367918
Cu      2.62043662      2.78270924      5.95460327
Cu     -1.90477311      4.58924466      1.85297617
Cu      2.48799779      3.22703763      3.44893638
Cu      0.00262196     -5.39748027      4.43150383
Cu     -1.00796749      0.72512207      3.27733988
Cu     -2.54485842     -2.94659165      4.14195952
Cu     -4.96386769     -1.62818544      1.90722810
Cu     -3.76553092      2.63552786      5.90152747
Cu      0.55905112      4.59720224      2.49357595
Cu      4.90191210     -0.56949549      5.30859164
Cu      2.63165648      0.33074288      5.54033074
Cu     -0.94320468     -1.64917215      2.92667071
Cu     -2.63061146      1.07936453     -0.73443802
Cu      5.28268634     -2.48057637      3.70859377
Cu      0.51227834      0.48568842     -2.29342638
Cu     -2.70793244     -2.59562227      1.64099183
Cu     -3.26056213      4.21988500      3.98686175
Cu      3.49531674     -3.56977603      2.38192204
Cu      1.28636592     -1.02138119     -0.52405350
Cu     -5.33364657      2.78010037      3.94494171
Cu     -5.34116607      0.34206809      3.52827286
Cu      0.76985084     -4.29408003      6.63591735
Cu     -2.63157696      3.51968146     -0.31113290
Cu      2.29193203      3.53065741      0.92866348
Cu      3.58229515     -1.84768311     -0.73197622
Cu     -1.62418522      4.01654215      5.91868931
Cu     -3.13626254     -0.68149255      3.20317547
