         100
Cu Cu     -307.983550        0.000000     -307.983550   0.05593-307.98355
Cu     -5.10390945      1.92853647      0.31369633
Cu     -3.92139545     -2.52813457     -4.01621234
Cu     -1.26764957     -0.80234808     -1.20131644
Cu      1.17125548      0.46830878      1.72546098
Cu      4.71496712      0.01648474     -1.74593198
Cu      3.26915686      3.38665828      3.38062012
Cu      2.50059652      0.33486306     -4.55616536
Cu      2.69625139     -2.53165015     -0.80451359
Cu      2.91461953     -1.31308776     -2.77513579
Cu     -2.53396171      1.11095167      4.31176241
Cu      4.02546664      1.87208270     -3.29905504
Cu      1.90345152     -1.88628527      1.41792334
Cu      3.39903596      3.83333763      0.96288050
Cu     -0.86184157      0.98637740     -4.93027500
Cu     -0.10643693      1.40844287     -1.89660201
Cu      3.36387643      1.56478229      1.73858549
Cu     -0.45600510      0.58230901      5.71359224
Cu     -4.16980404     -0.66090882      3.67199756
Cu     -1.31164263      2.91687529     -3.60993598
Cu      1.73929555     -2.11430997     -4.65317134
Cu     -4.43688401      1.63846990      2.71870426
Cu     -0.59065544     -0.29766750      3.44166278
Cu     -4.33990192      1.93455000     -2.12305001
Cu      1.99895896     -0.05192409      5.87257507
Cu     -1.43142036     -3.55700443      4.68063679
Cu     -0.59851142      3.49221522      0.51090241
Cu     -3.31566162      4.02711726     -2.87162675
Cu     -2.19564165     -4.29531689     -3.30982022
Cu      0.44898092     -3.18031727     -0.01705458
Cu      1.72113341      5.27729046      2.28764561
Cu      4.02908214      2.10575839     -0.68580788
Cu      4.05261627     -1.24609998      4.73252105
Cu     -3.07860327     -4.40131136      3.03221894
Cu      0.09875023      3.82882576     -1.89317523
Cu     -2.57885617      4.87798826      1.32849784
Cu     -0.61964240     -1.27126680      1.13118909
Cu     -0.90440023      1.99967787      2.62340331
Cu      0.15499333     -1.78980847      5.30166579
Cu     -3.19303803      0.53076952     -0.42105960
Cu     -1.50344144     -3.69434557      1.25433378
Cu     -1.84630274      5.04208196     -1.03029103
Cu     -5.82668274     -2.08303400     -2.56722132
Cu      0.52325614     -2.38991910     -2.27358756
Cu     -2.10817052      2.59224962     -1.27999835
Cu      1.02650165     -4.17997083      4.56446696
Cu     -2.09640057     -3.05836063     -5.50317849
Cu      1.19166805      3.98579397      4.38035545
Cu      3.46785094      0.96597780      4.05314339
Cu     -0.36396210      5.89749423      0.87171184
Cu      0.46889950     -0.32999819     -3.40194043
Cu      2.49304603      3.39006624     -2.06776503
Cu     -2.82563985      3.41690780      3.35534490
Cu      3.66640256     -3.59082760      1.15970746
Cu     -2.25053013     -5.47748407     -0.99877850
Cu      2.11301497     -4.88128368     -0.52413588
Cu     -5.27219260     -2.35171429     -0.19543638
Cu      4.86452093     -1.74715662      0.06378873
Cu     -0.00600809     -4.77804843     -1.97827557
Cu     -0.63174019      4.46225293      2.84730505
Cu     -2.29412484     -2.07195603      2.91939147
Cu      1.12062846      1.53233492      4.06706326
Cu      3.96539451     -0.89494047      2.28320145
Cu     -4.11186612     -3.83048790     -1.85417908
Cu     -3.39065420      1.93510744     -4.47790904
Cu     -4.60794551     -2.62684299      2.24053945
Cu      0.13192195     -2.68444155      2.94567920
Cu     -2.77082211     -0.56105345     -5.09839097
Cu      1.26590912      2.96468620      2.06267748
Cu      1.12611260      2.23610417     -3.82448597
Cu      3.10504267     -0.10536458      0.06678299
Cu      2.23107664     -3.89734145     -2.88473228
Cu      2.35887603     -2.52081029      5.77796208
Cu     -5.49907257     -0.06630834     -1.17169665
Cu     -3.76213193     -4.21458468      0.54240556
Cu     -2.81642728      2.48329567      1.08164759
Cu     -0.63623291     -5.16609882      2.97129504
Cu      0.99128457     -0.61680388     -0.67652602
Cu     -1.59596055     -1.85973304     -3.39105834
Cu      2.91316716     -3.04344239      3.42188177
Cu      5.36735781      0.56549260      0.70483065
Cu     -2.98339263     -1.80575529      0.52521510
Cu     -2.55238295      0.19269699      1.97575002
Cu      1.47272384     -4.43366490      1.90585789
Cu     -0.90740086      2.88481390      4.89105810
Cu      1.47606449      4.66615047     -0.10745712
Cu     -2.33467199     -6.04742157      1.39079370
Cu     -2.22877903     -1.18388274      5.17612532
Cu      1.54866046      2.12167421     -0.15255849
Cu     -1.76799201     -3.15409597     -1.17332371
Cu     -4.02193398      3.95748805     -0.50462897
Cu     -3.54594615     -1.44985020     -1.85145755
Cu     -0.80022406      1.06135583      0.37359404
Cu     -4.62523305     -0.09218230     -3.55149520
Cu     -0.03896745     -3.67989787     -4.27523893
Cu      1.81469743     -0.90752609      3.66787132
Cu     -0.39103370     -1.36087190     -5.49285748
Cu     -0.15129022     -5.56637291      0.39558223
Cu     -2.25426394      0.57822935     -2.88519717
Cu     -4.89637847     -0.35118669      1.26578808
Cu      2.29008147      0.87758925     -2.08855080
