         100
Cu Cu     -308.770216        0.000000     -308.770216   0.05856-308.77022
Cu     -4.90993492      1.88628895      0.62146849
Cu     -3.49552022     -2.38924506     -3.98915749
Cu     -1.07203746     -0.17668537     -1.38528429
Cu      2.48942196      0.69589203      2.96847265
Cu      4.71477158      0.79414487     -1.27757402
Cu      4.75740804      1.31681712      3.50215865
Cu     -4.60479153     -0.34269431      1.90787063
Cu      2.75950231     -1.96812811     -0.45839058
Cu      4.20871997     -1.42177811     -2.33223942
Cu     -1.59090170     -3.17458734      4.65177945
Cu      3.80764373      0.67864583     -3.65011170
Cu      2.05424287     -1.57764304      1.93260650
Cu      2.92207371      2.47541928     -0.77201686
Cu      1.66105238      0.05168879      6.37053571
Cu      0.37141782      0.36470189     -3.25400445
Cu     -2.55755790     -1.40358471      6.17895274
Cu     -1.54520199      2.79319122      6.51414694
Cu     -3.73677133     -0.20685527      4.29649279
Cu     -0.67802847      1.32050364     -5.21454135
Cu      2.21724685     -1.25202827     -3.87497876
Cu     -3.61264733      3.15426419      5.19582716
Cu     -1.92050501      1.66335788      4.42181033
Cu     -0.83910499      1.12428230      0.60464555
Cu     -0.82727339      0.45329626      6.44854672
Cu     -1.19258465     -0.70723190      4.31634996
Cu     -0.38666394      3.44988069      0.31202128
Cu     -2.98164519      3.22909639     -3.13040752
Cu     -1.71837712     -3.96723835     -3.18314708
Cu      0.54461455     -2.84548278      0.34240676
Cu      1.89529149      4.24135484      0.83731934
Cu     -4.91263479     -2.81662877      2.19815470
Cu     -3.24007622      0.98599115      6.36291247
Cu     -3.11274427     -4.37820596      3.01227784
Cu     -0.47617411      2.82030806     -3.19987797
Cu     -2.18606383      5.00703697      0.86987491
Cu      0.19911517      0.04682941      2.46276773
Cu     -0.53189359      2.42255129      2.59219604
Cu      1.67098012     -4.05776839      2.21952560
Cu     -0.03795747     -1.88807708      6.19414141
Cu     -1.70024020     -3.62472036      1.14143453
Cu     -1.47110441      4.57194284     -1.57773882
Cu     -5.46433351     -1.86225783     -2.51816450
Cu      0.74702751     -1.78323946     -1.94293791
Cu     -1.90864000      2.18558469     -1.24749365
Cu      0.93307575     -3.57622983      4.60491667
Cu     -2.61033133      2.60834323      1.17267558
Cu      3.69524731      2.56592936      1.65702036
Cu      2.87159831      1.85901865      5.06301366
Cu      0.06327905      5.78641423      0.02659128
Cu      0.14041046     -1.02786748     -5.29902724
Cu      2.02236332      2.31730069     -3.15227729
Cu     -2.36230345      3.94983825      3.22722404
Cu      3.87642539     -3.13726485      1.37774512
Cu     -1.93444755     -5.04839520     -0.87786142
Cu      2.36656033     -4.38464628     -0.20393629
Cu     -5.67680666     -2.85197308     -0.22907076
Cu      5.03738772     -1.30634893      0.06490526
Cu      0.33309209     -4.26165958     -1.71834410
Cu      1.76083548      3.16223621      3.19973406
Cu     -2.68502305     -1.93923216      2.73185235
Cu      0.53649138      1.32689906      4.57350530
Cu      4.38828672     -0.92259695      2.47868561
Cu     -3.75083036     -3.48820315     -1.72396637
Cu     -4.22234490      1.43587851     -1.85420783
Cu      3.62170340     -0.50217600      4.85342231
Cu     -1.26213371     -1.22408014      0.86842034
Cu     -2.34818055     -0.56111822     -5.30191420
Cu      1.40597227      1.87446234      1.10964337
Cu      1.79652976      0.85898934     -5.13336580
Cu      3.21581953      0.29007502      0.60866486
Cu      2.56590934     -3.33909093     -2.48602048
Cu      2.42336699     -2.28716139      6.12818816
Cu     -5.32890585     -0.41714939     -0.52108226
Cu     -3.49916468     -2.02827329      0.32706627
Cu     -4.39053368      4.10751031      1.73408439
Cu     -0.61775257     -4.84709342      3.00423530
Cu      0.93911601     -0.39668893      0.09204851
Cu     -1.28359466     -1.55049059     -3.39347562
Cu      3.16248965     -2.73570215      3.79518749
Cu      5.47152526      0.91468157      1.14217351
Cu     -0.08320000      4.80623012      2.34531292
Cu     -2.31007290      0.45584703      2.39557703
Cu      0.10178925     -5.25537336      0.61209455
Cu     -0.29151957      3.69635238      4.64519409
Cu      1.06105116      4.11759841     -1.57202623
Cu     -2.13664548     -6.01705220      1.40833522
Cu     -4.04231513     -2.63681658      4.58952031
Cu      0.58293338      1.75203112     -1.24339098
Cu     -1.49557011     -2.63118677     -1.14495420
Cu     -3.73413573      3.71478039     -0.71532517
Cu     -3.28449833     -1.00677393     -1.94020951
Cu     -3.08147191      0.38921829      0.05635511
Cu     -4.36697089     -0.05519134     -3.88176105
Cu      0.51398636     -3.13134237     -3.97588566
Cu      1.30612114     -1.12217652      4.27881775
Cu     -0.17963374     -2.42664446      2.73858024
Cu     -3.93062756     -4.48087260      0.59579026
Cu     -2.17027551      0.87921221     -3.31812390
Cu     -4.10912849      1.99310363      3.06170175
Cu      2.38361562      0.16871621     -1.78799677
