         100
Cu Cu     -308.886059        0.000000     -308.886059   0.05631-308.88606
Cu     -4.96337052      1.90577368      0.56689588
Cu     -3.54303341     -2.27957499     -4.07175713
Cu     -1.12947169     -0.15467056     -1.38947593
Cu      0.08609272     -0.06140545      2.43689856
Cu      4.66980339      0.71828432     -1.16941605
Cu      4.63876451      1.15459486      3.63534087
Cu     -4.70587776     -0.31142156      1.85527194
Cu      2.65553502     -2.02659293     -0.43968886
Cu      4.15151285     -1.47613372     -2.27375942
Cu     -1.78916801     -3.25484816      4.57879740
Cu      3.81197713      0.65137038     -3.56112976
Cu      4.26007069     -1.06425719      2.54788099
Cu      2.89609549      2.41574513     -0.64102349
Cu      1.49063024     -0.11775009      6.41880604
Cu      0.35821025      0.39526721     -3.22035209
Cu     -2.73340499     -1.49615450      6.13242605
Cu     -0.37227798      3.55300056      4.77331466
Cu     -3.75105093      3.05073624      5.24366435
Cu     -0.64035781      1.40306795     -5.18492129
Cu      2.18843671     -1.24378468     -3.84522736
Cu      1.92931919     -1.67799965      1.94002295
Cu     -2.02523031      1.59471463      4.49116922
Cu     -0.93385083      1.12230139      0.63268060
Cu     -0.23626214     -2.01597693      6.16778459
Cu     -1.34019500     -0.79064490      4.29642858
Cu     -0.41784246      3.42419823      0.39114099
Cu     -2.93213325      3.30242444     -3.12826136
Cu     -1.80997393     -3.90372871     -3.26990937
Cu      0.41010205     -2.87803569      0.31039264
Cu      1.86216955      4.16553295      0.98559957
Cu     -5.06992489     -2.78643330      2.08353698
Cu     -3.39487160      0.88099992      6.38926369
Cu     -0.82538449     -4.91912251      2.91567226
Cu     -0.43696357      2.85867951     -3.13749519
Cu     -3.71283971      3.74814613     -0.75071251
Cu      2.38369067      0.56811646      3.03638402
Cu     -0.63430950      2.35368723      2.64929154
Cu     -0.97223354      0.36290869      6.46941062
Cu      0.72557934     -3.71097572      4.56442342
Cu     -2.34359723     -6.02332114      1.27724833
Cu     -1.43272422      4.59842072     -1.50622077
Cu     -5.52857354     -1.73997831     -2.62527774
Cu      0.67205572     -1.78503043     -1.95301439
Cu     -1.92135121      2.21321801     -1.23022056
Cu      1.66143593      3.04452925      3.33124815
Cu     -2.72258313      2.65568233      1.20515161
Cu      3.61559560      2.45401061      1.80250715
Cu      2.71526091      1.71242373      5.18830943
Cu      0.08823717      5.75781003      0.16222346
Cu      0.14179926     -0.95566026     -5.29453870
Cu      2.05000419      2.31323245     -3.04441265
Cu     -2.41981128      3.87705161      3.31937291
Cu      3.73268939     -3.25334015      1.38742208
Cu     -2.08700359     -5.01969405     -0.98790655
Cu      2.21513380     -4.43919278     -0.23363693
Cu     -5.80276216     -2.77605201     -0.36042944
Cu      4.93357871     -1.40600818      0.13950116
Cu      0.20996220     -4.25740341     -1.77807724
Cu      0.41228304      1.12907120      4.52819819
Cu     -1.38594120     -1.23769471      0.83223604
Cu      0.70447549      2.26606531      6.61576396
Cu      1.49274420     -4.14991467      2.18181759
Cu     -3.86084732     -3.41325635     -1.83358413
Cu     -3.30984477     -4.38993955      2.89630505
Cu      3.45737865     -0.67356199      4.91767425
Cu     -2.83647482     -1.95000273      2.66783207
Cu     -2.33707888     -0.45316694     -5.33986164
Cu      1.32596502      1.80309136      1.19964093
Cu      1.82423333      0.90292676     -5.06210048
Cu      3.12411461      0.20426794      0.68059459
Cu      2.47405112     -3.36126101     -2.49265586
Cu      2.21763995     -2.47571536      6.13003339
Cu     -5.40317674     -0.34327940     -0.59302276
Cu     -3.62268664     -1.99512881      0.24686985
Cu     -2.16872126      5.00103578      0.92967565
Cu     -3.87121448     -0.23008746      4.26884407
Cu      0.84499111     -0.43125913      0.10200001
Cu     -1.32819436     -1.49036824     -3.42651983
Cu      2.99139011     -2.88995519      3.80174091
Cu      5.37359554      0.79215270      1.27107957
Cu     -0.13809726      4.72890594      2.46554269
Cu     -2.40671237      0.45114442      2.40174948
Cu     -0.07842751     -5.28464276      0.52930675
Cu     -1.73272242      2.71923329      6.63680878
Cu      1.08436820      4.10069664     -1.44752100
Cu     -1.86193582     -3.63467619      1.05982549
Cu     -4.22614666     -2.65993509      4.49447945
Cu      0.55854162      1.73909874     -1.17485791
Cu     -1.60114844     -2.60724075     -1.20549169
Cu     -4.23654089      1.50920510     -1.88829320
Cu     -3.34554334     -0.93457567     -1.99402657
Cu     -3.15112875      0.41964619      0.03671172
Cu     -4.37138723      0.06356389     -3.94698406
Cu      0.45060045     -3.09277364     -4.01195747
Cu      1.15297282     -1.27098103      4.27986590
Cu     -0.34289992     -2.50710333      2.69892150
Cu     -4.09758646     -4.44378076      0.46573482
Cu     -2.17002439      0.94709578     -3.32652596
Cu     -4.19029697      1.96949998      3.06090062
Cu      2.34386692      0.13703862     -1.73342669
