         100
Cu Cu     -308.042900        0.000000     -308.042900   0.19390
Cu     -0.40261807     -0.08349408      6.87489002
Cu      1.92737600      0.73934058     10.27581880
Cu      2.68344705     -6.18493505      9.64786980
Cu     -3.24215452     -2.93538558      2.95305022
Cu     -1.99959370     -7.18392001      4.13663977
Cu      1.37174918      1.58392844      7.98161591
Cu      5.41535112     -5.75457094      5.98281779
Cu      4.14774290      0.06101601     11.04917687
Cu     -0.64375515     -7.65906017      6.26804508
Cu      2.94176609     -2.27921978      5.16007552
Cu      4.11328907     -1.38484406      3.32441351
Cu      0.66468156      1.57222405      5.47563670
Cu      2.98851280      1.95219509      6.19042870
Cu     -1.15046519     -4.48479571      9.80424178
Cu      0.94811356     -5.11993029     13.52323019
Cu      1.61326661     -8.76943226      6.12538146
Cu     -4.04837801     -2.73910324      5.20979449
Cu      3.02104145     -3.55492310      2.87492740
Cu     -2.31157528     -1.56989351      6.72184831
Cu     -0.01349049     -6.38591319      2.90816753
Cu      5.80277432     -1.70988366      5.17284620
Cu     -2.02457150      1.04144450      5.49317453
Cu      0.19076655     -8.49692161      4.11560801
Cu     -0.58922592      1.12653561      9.40519742
Cu      1.40024851     -1.84489301      3.16566496
Cu     -1.41189492     -1.12992838      9.01711778
Cu      2.73691231     -3.62933384     10.07486040
Cu     -2.04379137     -6.59852391     10.74570907
Cu      0.42829652     -8.75599220      8.34054716
Cu      3.25764528     -4.97302825      7.58191254
Cu     -4.73044550     -2.46285523      7.42691980
Cu     -3.16448098     -5.53769846      8.69491871
Cu      2.27790512     -5.81363308      2.84776625
Cu      4.21631908     -1.29704288      7.13321222
Cu      0.10256518     -6.97271446     12.06761072
Cu      6.57253062     -2.21710638      7.49472081
Cu     -2.50429089      0.81623101      7.86418917
Cu     -0.76621304     -8.72210005     10.51144693
Cu      5.55338002     -0.87028056      9.28762375
Cu      2.18860572     -2.67047381      7.60202050
Cu     -4.17579017     -0.25016352      6.25839727
Cu      0.75990713     -4.02224052      4.03637711
Cu     -0.78901921      2.38473508      7.22602577
Cu     -1.84110711     -7.67926575      8.48616725
Cu      4.33660449      0.20417209      5.25099951
Cu      1.68425348     -8.24695859     10.54665997
Cu     -2.84620185     -3.03255997      8.89318253
Cu      0.92841730     -4.87300414     11.11862268
Cu     -0.35278188     -0.35948043      4.25940953
Cu     -0.06174890     -0.54605678     11.15582331
Cu     -1.49698052     -4.57293045      2.87856319
Cu     -4.14084444     -2.16818752     10.78634224
Cu     -5.03435156     -4.02584792      9.25883555
Cu     -2.51430963     -4.02950762      6.71382754
Cu      1.20955752     -6.45746785      5.02034848
Cu      4.58573271     -2.41685246     11.13480416
Cu      4.46217556     -6.29729328      3.82368038
Cu      1.36159571     -6.65090333      7.44673586
Cu      1.01301728     -4.40045439      6.35239166
Cu      2.88416471     -8.30270049      8.31547761
Cu     -2.89268800     -6.53931998      6.40747928
Cu      5.99853952      0.22985333      7.08528139
Cu      2.11116445     -0.29299765      6.57817972
Cu     -3.32891497     -4.46728485     10.98758689
Cu      2.80471430     -3.85772754     12.44628133
Cu      2.65538910     -8.03161729      3.94039075
Cu      0.14254254     -6.64677227      9.60522465
Cu      3.12803291     -1.29186631      9.37390015
Cu      5.14452325     -3.84359327      4.02351907
Cu      4.68307263     -3.50024509      6.35714862
Cu     -0.90557075     -2.20760982      2.59642948
Cu      6.22051796     -4.69031604      8.03232484
Cu      0.58933974     -2.03575882      5.67166602
Cu     -0.89237407     -5.57572711      7.61210818
Cu     -3.30990976     -4.96197611      4.52739345
Cu     -0.47060005     -2.94856277      7.71579389
Cu      3.76060184      0.80670365      8.33196659
Cu     -4.72987000     -4.84013131      6.79268482
Cu     -1.72909548     -2.47890897     11.17852980
Cu     -2.73490457     -0.92284517      4.25908307
Cu      0.49204697     -2.63608853     10.06504902
Cu     -2.54251169     -0.10066686     10.80647969
Cu     -0.96466631     -5.33781481      5.19265218
Cu      0.39818164     -2.89483320     12.51645333
Cu     -3.92337632     -0.76274687      8.84501886
Cu     -1.22267968     -4.78381693     12.28454194
Cu     -1.48726235     -2.95873521      4.80768203
Cu      6.60618851     -3.08360086      9.88608022
Cu      3.41209114     -7.07805689      6.12269109
Cu      2.22796851     -1.52998228     11.58107830
Cu      0.93588097     -0.76236934      8.68462185
Cu      2.57484269     -6.34953551     12.06434464
Cu      6.98640464     -3.88304897      5.72668014
Cu      4.55258796     -3.09819007      8.68524583
Cu      3.04321412     -4.78468824      5.05116041
Cu      0.70834603     -4.06970789      1.71925929
Cu      2.18522222      0.13787996      4.20414024
Cu      4.78819191     -4.94743676     10.23271675
Cu      1.06778746     -4.58358914      8.70966612
Cu      4.76635369     -6.67660159      8.31310619
