         100
Cu Cu     -308.089383        0.000000     -308.089383   0.11921
Cu     -2.56181805     -0.33940546      7.69144887
Cu      3.25663350     -2.91209578      6.06724218
Cu      7.14225921      2.29033602      6.58561113
Cu      2.97860956      0.07671613     13.53065084
Cu      3.93197045     -1.68408081     10.70510902
Cu     -0.95002682     -3.09893543      7.48757899
Cu      1.70679497      4.82992144      9.68529981
Cu      1.58460341     -5.61221153      8.91753866
Cu      2.90271410     -5.86363685     11.04548373
Cu      2.62762058      0.38362122     11.19609410
Cu      2.32532270     -4.09247510     12.66452053
Cu     -4.06004777     -2.86703294     10.53865880
Cu      6.69406283     -2.02560786      7.34310407
Cu      3.81951558     -2.52975885      8.46072864
Cu      3.14385833      3.28937959      5.52469990
Cu      2.35713465     -3.60479907     10.32376509
Cu     -1.35424548      1.16876837      4.90462771
Cu     -1.94671012      0.49582775     11.99368851
Cu     -0.88499733      5.01732147      9.96033793
Cu      0.44659998      3.81096049     11.58005636
Cu     -1.76808819      2.75431267     10.74936938
Cu     -0.94417616      1.48777863      7.44034838
Cu      4.75255507      1.60485927     10.12252920
Cu      5.60351366     -0.83600356      9.15455312
Cu      6.60536292      2.63445263      8.99107857
Cu      4.04731732      2.29870261     12.29574849
Cu      1.15715751      4.72752177      5.50974324
Cu      2.72887549      4.71883345      7.48558078
Cu      0.14577382      2.95378909      9.22420773
Cu      3.49632266     -2.68851463      3.62792889
Cu      5.26655434      1.15805395      7.62727041
Cu     -2.30969675     -1.94580321     11.92848927
Cu     -2.12556091     -4.95912038      6.50259129
Cu      2.88578755     -5.18482318      6.81188985
Cu      2.33760243      2.58920924     10.42559957
Cu      1.74562532      2.17770396     12.91591271
Cu      0.83532559      2.46850024      4.57506958
Cu      0.35187891      1.34512823     11.07142691
Cu      4.54447657     -0.96048546      6.70323669
Cu     -0.98977625      3.45985904      5.96352768
Cu      0.15697679      4.88578817      7.71889327
Cu      2.62932737     -0.68438722      2.52873921
Cu     -0.73533684      2.29153270     13.05183107
Cu     -1.14851548     -3.38690008      4.86577896
Cu      2.84153667      4.39007474     11.87744137
Cu     -3.10075003      1.97631181      6.47489839
Cu      6.25350933     -1.91769878     11.40794627
Cu      6.95532635      0.52851966     10.56372403
Cu      4.24294426      4.04667077      9.71903379
Cu      5.56441509     -2.53200921      5.11015046
Cu     -4.34250594     -1.83572568      8.35538127
Cu      1.85465105     -4.32062114      4.60066466
Cu      0.74084121      0.47589884      6.07682686
Cu      5.94526597     -3.30228583      9.39676658
Cu      6.62836885     -0.05595758      5.81636945
Cu      4.32792130     -4.70208012      4.83097159
Cu      0.02863802     -3.16483333      9.79316881
Cu      1.18685669      2.74658130      6.98454453
Cu     -0.15397131     -0.96294219      8.17850388
Cu     -3.05198251     -3.97518154      8.54101333
Cu      7.51744326      0.36113340      8.12444423
Cu      1.88057296     -1.75846657     12.16737585
Cu     -4.78298147      0.37373810      7.33713557
Cu      2.12054965     -1.08328227      7.31502435
Cu     -1.99470756      3.58845193      8.24160827
Cu      5.11911996      1.83676078      5.24139913
Cu     -3.04409808     -2.56259341      6.37903368
Cu     -1.48597882     -1.19121898      3.63758463
Cu      3.46861794      0.07289799      8.86265917
Cu      2.40331347     -0.91481523      4.91022520
Cu      1.58457504     -3.39720610      7.96717144
Cu     -1.93372116     -4.15740089     10.79579754
Cu      3.09391006      0.98907137      6.35665494
Cu     -0.84114045     -5.20465163      8.74505404
Cu      5.21299030     -4.03339724      7.06287589
Cu      0.51505744     -5.17483405     11.08814300
Cu      0.43531027      0.04096324     13.11483681
Cu      1.24066048      0.91666496      8.72171272
Cu     -3.40119591      1.71390744      8.92047355
Cu      0.85707309     -2.28609154      3.46351422
Cu      0.57301923      0.15916450      3.64591242
Cu      0.35618389     -4.94615871      6.48998843
Cu      3.21805141      2.46196679      8.23277857
Cu     -1.38662000      0.59466425      9.61877804
Cu      4.55536194     -3.96223895     11.36755978
Cu      4.98847652      0.04733637     12.06572175
Cu      2.89329849      1.32793431      3.93654215
Cu     -2.03650004     -1.95800953      9.45405118
Cu     -3.62973243     -0.36068391     10.26191856
Cu      0.81909188     -2.49964814      5.86657182
Cu      1.71847149     -1.37699305      9.69436047
Cu      5.07010734      3.58868091      7.19268632
Cu      3.99977626     -4.92297941      9.04805890
Cu     -0.12388503     -3.15692459     12.29441237
Cu     -0.25196621     -1.04175213     11.01110656
Cu      4.14671045     -2.16214572     13.05179075
Cu      7.84403587     -1.63939495      9.55368307
Cu      4.65411859     -0.40992743      4.23876296
Cu     -1.09682287     -1.07941495      5.93955280
Cu     -3.33677501     -0.28525687      5.34767574
