         100
Cu Cu     -307.364417        0.000000     -307.364417   0.21552
Cu      0.38936179     -2.24841759      7.21571287
Cu      3.54322654     -0.23035459      9.17529438
Cu      7.22662364     -2.16702128      4.43849660
Cu      1.87918622     -5.66790350      3.81309379
Cu      3.29652008     -3.67344417      5.26201882
Cu     -1.13637650     -4.18393891      6.94361261
Cu      0.15796818     -1.72425698      9.88864908
Cu      2.87779326      0.98575344      6.85717543
Cu     -0.30922248     -0.15383263      6.23048506
Cu      4.38839991     -2.43836823     10.13026794
Cu     -1.72890038     -2.77373626      8.82065499
Cu      2.44594619     -6.22810169      6.09371394
Cu      2.52219866     -4.31723648     10.27399197
Cu     -2.62552658      1.55199342      9.46882373
Cu      4.94252828      1.51000756      3.48713801
Cu     -2.61336005     -3.72494752      3.18603114
Cu      2.33486455      1.94266976      9.11220260
Cu      4.82841044      1.69069457      8.45415324
Cu      6.37326100      0.10035007      5.09060874
Cu     -1.77961691     -6.48341935      7.28972836
Cu      0.98747625     -4.50430168      1.50121912
Cu      6.92384668      0.77431252      7.42149300
Cu     -1.55310732      3.66789196      8.46249672
Cu     -1.60840965      1.68637823      7.17324869
Cu      5.58385044     -0.96240498      3.05595040
Cu      0.91898613      3.89816248      8.47418258
Cu      0.50989010     -3.94151805      8.87731640
Cu      2.29642933     -2.23181104      8.96880602
Cu     -0.83416412      1.75970871      4.83941620
Cu      4.84564554     -0.30310919      7.00515602
Cu      4.35038070     -5.57862790      4.37146854
Cu      0.24520991     -3.77542083     11.27944667
Cu     -3.03468002      2.77537826      5.14519149
Cu      2.53248295      1.77124547      2.79088832
Cu      5.36036151     -3.48081985      3.41958057
Cu      0.98751024     -4.26485334      5.76346776
Cu      3.60083831      0.03763609      4.70538241
Cu     -0.13339778      1.74596884      9.24317498
Cu     -0.71601416     -0.52324518      3.81904663
Cu      3.29837970     -4.27993449      2.39235818
Cu      0.16220305     -1.39146379     12.32260557
Cu      5.07989061      1.93632123      6.02049037
Cu     -1.48164093      3.48312728      3.35938177
Cu     -0.64750321     -0.34483231      1.34558756
Cu     -2.13027785     -1.78221715      6.66382312
Cu      1.96255114     -2.23457010      1.27472414
Cu     -2.81658609     -1.28292953      2.06422018
Cu     -3.73648253      2.67092036      7.51964810
Cu      0.55804561     -5.97711781      7.66596577
Cu      1.30131257     -1.53407212      5.03920721
Cu     -3.20276248     -0.98405066      9.88911401
Cu     -1.78984426     -2.40535283     11.27766136
Cu     -4.66166150     -1.23668280      5.83497372
Cu     -3.54497719     -3.62945391     10.08219303
Cu      1.37933362      0.94251097      4.78295603
Cu      4.62426049     -4.67201243      9.16518510
Cu      1.48247750      4.43283304      6.16688711
Cu      2.60002127     -4.11643241      7.57800348
Cu     -4.89566006      1.25328489      5.81747556
Cu      6.06091809     -3.94039451      5.74319694
Cu      1.43864105      0.16881489     10.66586762
Cu      6.88332515     -1.69648886      6.82423816
Cu      3.67861362     -0.12967414      1.85783781
Cu     -4.42721013     -0.02296662      3.68434730
Cu      1.37339211     -3.31459949      3.53222632
Cu      0.09284175      1.60137258      2.54960108
Cu      5.94736083     -0.89302264      9.01512088
Cu     -2.20848865     -5.31387015      5.10037983
Cu      2.23429925     -2.10668122     11.36651809
Cu     -1.15138219      0.10695781     10.90216919
Cu     -0.80637555     -2.94128316      4.83010004
Cu     -0.54861969     -2.56098184      2.31104307
Cu      0.74336368     -6.01321349     10.12523559
Cu      0.85312837      3.33784131      4.12823172
Cu      1.58426277      0.46473978      0.73602632
Cu      1.18963803     -0.10098873      8.20034184
Cu     -4.10234001     -2.33224773      8.00847546
Cu     -0.03927137     -6.43717120      5.35787895
Cu     -2.72516477     -1.65753507      4.35113474
Cu      1.45742497     -0.54526739      2.85959392
Cu      3.34610834     -2.00281749      3.42598159
Cu     -2.35149954      1.09509226      2.99665680
Cu     -0.46139600     -4.94635481      3.42416803
Cu     -3.32976469     -4.64958073      7.83586636
Cu      3.04523631      2.71795364      5.01136896
Cu     -1.51131846     -5.12610814      9.48031707
Cu     -1.28843048     -0.35213195      8.48801404
Cu     -2.69258406      0.38060297      5.44687517
Cu     -3.62805248      0.13375804      7.68703658
Cu      2.85926293     -1.58784875      6.75384305
Cu     -4.76946766     -2.49993521      3.59218843
Cu      2.79821639     -6.25154031      8.65283343
Cu     -3.63129297     -3.48045197      5.67946821
Cu      4.53885064     -5.37861196      6.86077037
Cu      3.26067281      3.33453305      7.37977602
Cu     -0.91554465      3.85241738      6.05009499
Cu      4.93408143     -1.90518173      5.26674481
Cu      0.78275562      2.15906829      6.83674929
Cu      4.78769069     -2.79347522      7.64687461
Cu      4.46113894     -2.40286933      1.31279046
