         100
Cu Cu     -307.362425        0.000000     -307.362425   0.25641
Cu     -2.59360174    -10.84513682     10.88510940
Cu     -3.53922503     -8.87180163     11.97682788
Cu      2.79687487     -9.64418683     13.70998595
Cu      0.79234805    -13.15045037     13.07705213
Cu      0.87892671     -7.60803109      7.62506702
Cu      0.89294849     -8.92771999     12.29596051
Cu      2.30792831     -6.65706657     10.90487113
Cu      6.49193803     -6.65555394     13.20668529
Cu      5.26762107     -4.62165429     12.48663862
Cu      3.17937069     -8.86853761     11.45533772
Cu      4.61494109     -7.53368413      7.16209364
Cu     -3.46470483     -8.71078545     14.36636065
Cu      0.13868232     -3.33108937      8.88118671
Cu     -1.22910398     -8.87424706     11.16565663
Cu     -2.89747356     -7.04842635      7.47440115
Cu     -1.46790858     -8.45447896     15.77213511
Cu      0.69824748     -5.75270951      9.24071247
Cu      2.07859376     -6.20370206     15.65657263
Cu     -0.78917538     -6.64192661      6.14744599
Cu     -3.91923912     -6.61821464     13.03567851
Cu      1.55354564    -10.69450154      9.68546935
Cu      0.03010880     -6.69997221     11.58099236
Cu      2.36894447    -11.26472531     11.84517637
Cu      0.86141810    -12.43468683      8.24235933
Cu     -1.14932839    -12.29871284     14.50314711
Cu      4.01017328     -5.03943556      6.82305568
Cu      4.31945321     -6.10566358     14.44518109
Cu      4.04276863     -2.98291886     11.05164772
Cu      4.79996621     -3.42603683      8.63848520
Cu     -4.66873292     -7.02340148     10.60348892
Cu      1.08816400    -12.62270209     15.51746720
Cu      4.54655075    -10.48289065     15.13162617
Cu      4.68084511    -10.68826828     12.56599242
Cu     -1.59576435    -12.70207891     12.17319246
Cu     -3.66004143     -4.65800630     11.50308521
Cu     -3.40264509    -11.16435405     13.21751579
Cu     -1.46717632     -7.73863934     13.33519368
Cu      0.67164861     -8.55835713     14.64765011
Cu      1.09573961     -8.33342017     16.92545765
Cu      2.83257841     -4.91323124     12.78738332
Cu     -0.02704953     -2.38698328     11.08766945
Cu      3.04496205    -11.25095951      7.69565676
Cu      2.11433320     -1.97545216      9.91944958
Cu      6.41811736     -6.43135473     10.76386375
Cu      5.69489071     -5.79234887      8.50074121
Cu     -1.25697453     -8.83003019      7.09589258
Cu      0.91257435    -13.10350118     10.68260297
Cu     -2.33782087     -3.04666032      9.79631972
Cu      2.06928099     -2.52875893     12.49255075
Cu     -3.07029056     -8.69771839      9.44812824
Cu      3.04079314    -13.54147364     12.01394426
Cu      1.47056098     -4.00368380     14.64232448
Cu      0.88744778     -8.38819315      9.92767392
Cu      6.62988770     -8.20227140      8.97425383
Cu      6.39769000    -10.54932417      9.91493614
Cu     -1.29047089     -5.05051290      7.93143376
Cu     -1.75975999     -5.42548351     12.87663892
Cu      0.33342440     -6.19784321     13.98196102
Cu      4.91145610     -8.45370241     13.76452130
Cu      2.86820035     -6.38233146      8.43860185
Cu     -0.22233298    -10.50546211     16.01010171
Cu     -2.40050865     -6.82877276     11.09061304
Cu     -1.96909249     -3.09181184     12.35014830
Cu      3.02386212    -12.74081937      9.63799371
Cu      2.42415232     -7.27613966     13.39173346
Cu      5.16824091    -12.17246452      8.54010241
Cu     -2.49050005     -6.31260123     15.06214664
Cu      1.04056380     -5.14450147      6.90046405
Cu      4.11848621     -5.20073260     10.23092819
Cu     -1.13199308     -7.28857195      9.08007533
Cu      5.80487175     -8.76788453     11.45518012
Cu     -0.07691626     -2.25425383     13.68091699
Cu      5.04333557    -12.46807319     10.98646986
Cu     -1.01462458     -4.24673173     14.83440807
Cu      0.89678621    -10.07595143      7.34245107
Cu      3.02348347    -12.11387082     14.06360063
Cu     -3.45424232     -4.24827195     14.01352958
Cu      2.48895160     -3.93002937      8.42118707
Cu     -0.29861671     -6.35042813     16.26594023
Cu     -1.15610620    -12.42268876      9.68014121
Cu      3.28721374     -8.25967444     15.62628395
Cu      0.82336112    -10.91213271     13.82551524
Cu      4.39824483     -6.81430250     12.05715693
Cu      1.80964820     -4.21829174     10.69639678
Cu      2.52099901     -6.86563631      5.97615268
Cu      6.31721899     -4.05288653     10.37265863
Cu     -1.08057956     -4.80890075     10.55544455
Cu      0.32111735     -4.31836322     12.52504187
Cu     -0.83762369    -10.08186789      9.12587249
Cu      0.70932766     -8.51924001      5.41945829
Cu      2.19364004    -10.44060964     15.92680288
Cu     -1.35193572    -10.06166768     13.44696664
Cu      3.00738952     -9.25914344      6.18969004
Cu      2.80488805     -8.88872740      8.53625128
Cu     -2.62137942    -10.66075126     15.51227817
Cu      5.05064920     -9.78072404      7.91535488
Cu      4.46949962     -7.67849118      9.72473442
Cu     -0.08737251    -11.01829326     11.47434345
Cu     -3.22091620     -5.44937817      9.27796770
Cu      4.01092815    -10.49799595      9.99960326
