         100
Cu Cu     -308.691847        0.000000     -308.691847   0.00917
Cu     -2.03547802     -2.77671460      2.04572630
Cu     -4.21885294     -2.58492733      3.28621352
Cu      2.13406609     -2.72267592      6.76199956
Cu     -2.07593246     -2.18126591      4.46629878
Cu     -3.63407201      0.37845000      6.51834897
Cu     -0.20173022     -3.26790311     10.41177939
Cu     -6.44054756     -1.16371664      9.41061978
Cu     -2.21972947      3.85923644      3.20924080
Cu      0.91937257     -3.99155181      4.93424064
Cu     -0.57178372     -6.76672201      7.85428194
Cu      0.90166144     -4.59237641      2.54614371
Cu     -1.38151837     -0.99011087      0.44736850
Cu     -2.59370801     -5.84295808      6.70083570
Cu      0.75345310     -4.73570393      7.28528791
Cu      2.71376070      1.48707643      4.49292734
Cu     -4.99992437      1.15620550      1.28067758
Cu     -1.42146291     -4.52509225      8.54594305
Cu      2.36648952      3.16577548      6.27962712
Cu      4.27865398     -2.92542698      5.47600696
Cu     -1.00434624      3.67045868      5.36313170
Cu     -5.80374986     -0.00283263      5.33201617
Cu      2.72714314     -5.68189579      8.39761106
Cu     -0.06309958     -2.51530043      8.02473638
Cu     -5.57171509     -3.98611247      6.27351120
Cu     -0.16295866     -0.02962748      7.43876615
Cu     -0.10334916      3.60043321      1.97821177
Cu      1.46895392      1.68846901      2.33623678
Cu     -3.16183405      3.84035778      6.59591416
Cu     -1.42346747      0.14506789      5.23924594
Cu     -6.31114590     -2.33035523      4.55963160
Cu      4.06864166     -1.21393684      7.28516241
Cu     -2.69849631     -6.52815833      9.09348853
Cu     -2.88175382      1.50519982      2.45879205
Cu      0.10641193     -1.76678144      5.63777300
Cu     -3.61485786     -0.23687686      4.06775805
Cu     -2.87219674      0.94627933      0.06801452
Cu     -4.35723222      4.00988440      4.41618898
Cu     -3.57096735     -0.83574117      1.63377476
Cu     -0.34786421     -0.79038533      9.79287229
Cu      2.97197768     -0.29925863      2.74017749
Cu      3.08952527     -4.20160501      3.68114348
Cu     -2.26365409     -2.30005768      9.30523749
Cu      0.20980585      3.42606341      7.50591217
Cu      4.08821966     -3.66384360      7.88020092
Cu      3.71398296      0.47075149      9.07297416
Cu      1.56696105     -6.93844871      6.61979669
Cu     -2.24490738      3.20812342      0.81109523
Cu     -0.72319411      1.88492471      3.59497228
Cu      2.29436728     -1.98986994      4.38579794
Cu     -4.44897139     -2.09291858     10.54295451
Cu     -0.44405532     -6.05016668      5.45921450
Cu      0.80179094     -0.04976310      3.96361787
Cu      3.81269347     -1.93347953      9.64478419
Cu     -1.69084528      1.88666004      7.02317793
Cu     -1.27179581     -3.80315565      6.16574216
Cu      1.84122392     -1.00295101      8.53390097
Cu      4.17653785     -0.49530784      4.90492805
Cu     -2.58751403      1.87319659     10.44356353
Cu     -5.72396479     -0.58849034      2.89266708
Cu     -0.68744904      1.31839391      1.15347154
Cu      0.80830819     -0.63429071      1.54484497
Cu     -2.91853163      2.09170377      4.85178413
Cu      2.27059251     -2.57965400      2.01792282
Cu      1.70490267     -6.19144447      4.26359835
Cu     -4.68872228     -5.59331686      7.96773783
Cu     -1.39879897     -0.43186284      2.81105586
Cu     -1.94251378      3.58690649      8.75597563
Cu     -3.61205671     -4.34127513      9.84797417
Cu      1.94861694     -3.47866377      9.16998693
Cu     -2.07894509     -1.55404771      6.92257936
Cu      1.14595774      3.42523501      4.12300165
Cu     -2.37596942     -3.03987731     11.62873432
Cu     -4.28359634     -1.35623570      8.18442564
Cu      2.03071565     -0.25413958      6.16988132
Cu     -2.54406566     -0.57121999     11.09887016
Cu     -1.27560435     -4.44841519      3.74541502
Cu     -1.56172620     -5.26656444     10.88233301
Cu     -0.41112100      1.70543759      9.22764978
Cu      1.74758350      1.49597040      7.98792592
Cu      0.10795802     -2.36774859      3.19211269
Cu      1.68693565     -1.70024073     10.92282735
Cu     -3.45839057     -4.23421888      4.99615758
Cu     -6.42092141     -1.75146054      6.99692295
Cu      1.58562958      0.68537577     10.35486633
Cu      0.50180082      1.67476614      5.76110674
Cu     -0.59068729      0.89161166     11.55080382
Cu     -5.60931462     -3.38704343      8.70375627
Cu     -3.89366971      2.12898771      8.29574754
Cu     -0.48564458     -1.50999414     12.12466635
Cu      0.57819180     -5.53226582      9.64238607
Cu     -4.55451355      0.36265716      9.94784151
Cu     -5.79870820      0.56914285      7.77239571
Cu     -3.42679281     -3.58081733      7.45451477
Cu     -2.37119207      0.17318541      8.70694542
Cu     -5.10000097      2.32905814      6.10340976
Cu     -4.23601579     -1.94756434      5.74931116
Cu      2.96637643     -4.97081915      6.03888808
Cu     -4.35951947      3.41503829      2.02228000
Cu      3.88361745      1.23751222      6.71331905
Cu     -5.11240695      1.73926776      3.68128640
