         100
Cu Cu     -307.724743        0.000000     -307.724743   0.16264
Cu      3.83727453     -1.96082295     13.18866594
Cu     -1.17509698     -2.91860139     12.84285795
Cu     -0.82441627     -2.70161335      8.30222274
Cu      1.04397025     -2.25663557      3.64778745
Cu      5.87327709     -3.48258621      9.86768309
Cu      0.30879619      2.18116089     10.31924262
Cu      5.87489925      2.43757804      7.43977604
Cu      3.75332239      3.23570617      8.47604179
Cu      6.06472930     -0.05033272      7.50145276
Cu      5.92677448      3.30129703      9.74728266
Cu     -4.34646426     -4.09886754      9.71574553
Cu      0.87453042      1.84539639      3.61495645
Cu      5.76459845     -1.94958591     11.73444512
Cu      3.11553671     -4.92360377      6.49684228
Cu      5.55627981     -1.17141961      5.29599403
Cu      2.67277028     -3.89997764     13.93857973
Cu     -1.28623449      0.68535685     11.28805950
Cu     -4.33710068     -1.73554577     10.31123860
Cu      3.79291031     -0.25429558     11.39568399
Cu     -1.74526088     -5.10751595     12.11012770
Cu      2.45069093     -2.52894536      5.70839490
Cu      0.74748282     -0.23508947      4.97021408
Cu     -2.14835080     -3.28266307     10.23355449
Cu      1.69218000      3.55541041     11.90806847
Cu     -2.48487349     -5.75336276      9.97041818
Cu      1.69071197      1.79756658      8.31026871
Cu      0.48938763      1.62745500     12.81809458
Cu      3.94186861      3.21436438      5.97255447
Cu      1.64788961      4.05964842      9.48231620
Cu      6.32269317      0.27611938     11.16104861
Cu      2.94627860      1.62656158     12.89665460
Cu      1.92571327      1.76184298      5.84522356
Cu      3.21923797     -0.21102242      5.19646652
Cu      0.13071583     -0.08286967      9.09509767
Cu     -3.63823543      0.65928222     10.48323272
Cu      5.30473413      1.24790549      5.33540964
Cu     -1.76861351      1.45593248      8.95567777
Cu     -0.98318592     -3.65937512      4.10667513
Cu      5.03128353      0.21882061     13.33115392
Cu      3.79685594      4.12643626     10.76934179
Cu     -1.55968328     -0.73471241      7.10706922
Cu     -0.37306459     -0.64181656     13.17046447
Cu     -0.17651236      3.12881833      5.57148226
Cu      2.01571481     -0.44609176     13.64681138
Cu      6.10359742     -2.55611357      7.62431359
Cu      0.45104786     -4.69098285     13.20585595
Cu     -1.48973049     -1.29377040      4.31336643
Cu     -3.63536730     -3.49362977     12.04933505
Cu     -2.39828891      1.86758005      6.64819561
Cu     -0.46345867     -5.16125511      8.79197771
Cu      7.27757153      1.27918392      9.15465248
Cu      2.74381216     -0.26457771      9.18434242
Cu      2.34203292     -4.74147501     11.70897689
Cu      0.90382545     -7.23920519      9.02144178
Cu      2.30324709     -0.17069757      2.95219251
Cu      2.78496626      1.91451349     10.47824613
Cu      1.43350404     -2.29977743      9.46299398
Cu      5.24194781     -4.93299668      7.80710913
Cu      1.97816209      3.85447333      4.55437952
Cu      1.78519497      3.93840918      7.00809434
Cu      1.52671195     -2.39103035     12.17539196
Cu      3.57000482     -3.34929612      8.40865294
Cu      1.86765929     -4.93003558      9.37231580
Cu     -2.46941779     -2.78359392      5.99700648
Cu     -0.84106664     -4.61872851      6.38599532
Cu      0.11084637     -3.92097951     10.83936954
Cu      1.05776449     -6.06264589      6.96080764
Cu      1.17302175     -4.44428333      4.97709986
Cu     -0.34103899      3.25118251      8.07473447
Cu      1.23971615     -3.66511237      7.44882464
Cu      7.28548002     -1.26142894      9.47335948
Cu     -2.66774778     -4.39381298      7.95268066
Cu      3.78011143      1.05261248      7.25321302
Cu     -3.60884634     -2.19612809      8.03962088
Cu     -2.16404803     -0.92648409      9.47667888
Cu      4.84309154      1.15188969      9.42687944
Cu      4.96487971      2.17768267     11.71407119
Cu      1.35791206     -0.00581665     11.27353389
Cu      3.37850336      1.92250184      3.86605780
Cu      3.97661573     -1.35944330      7.19795546
Cu     -0.13189355      1.09410041      6.90173467
Cu      3.71854462     -2.15029060      3.72751450
Cu     -3.73575301      0.25797531      8.01350094
Cu      4.93404196     -1.27871011      9.44389085
Cu      0.72084791     -2.49406605     14.42680220
Cu      4.68838732     -4.14491138     12.29134793
Cu      1.48931115     -0.84672468      7.21733839
Cu     -0.03801545     -2.32672345      5.93883178
Cu      4.77743932     -0.00380944      3.26107932
Cu      0.23687761     -6.26182205     11.12958923
Cu     -3.31281729     -0.27082509      5.61630201
Cu      4.19900814     -5.16962961     10.07548296
Cu      2.60366283     -6.93887804     10.70115753
Cu      3.49674104     -2.71076027     10.76539706
Cu      4.75508027     -3.37281070      5.78790293
Cu     -1.29305924      1.08185602      4.63869938
Cu     -0.12693570     -0.20505993      2.66832628
Cu      3.23150684     -6.58275576      8.27858395
Cu     -0.43342972     -1.60671124     10.92593936
Cu     -2.66756383     -1.21013075     11.96091705
