         100
Cu Cu     -309.037824        0.000000     -309.037824   0.06054-309.03782
Cu     -2.01377836     -2.86836672     -3.30420457
Cu     -4.04179619     -2.89771734     -1.73787804
Cu     -0.74001384     -0.04804257     -1.60099470
Cu      3.64479204     -3.75967819      2.78407930
Cu      3.93020609     -0.91343643     -0.36104821
Cu     -1.64694686      2.10788730     -0.69219809
Cu     -5.45038331      0.76801243      3.25241213
Cu     -5.00120447     -1.65958311      3.88771017
Cu      3.56415811     -1.52138694     -2.79440318
Cu      2.14090917     -4.61720214      0.78224478
Cu     -4.18351968     -4.62455538      0.12849287
Cu      4.72403967     -1.49798984      2.09281794
Cu      3.40274939      1.48581240     -0.94411244
Cu     -0.97844297      2.55744204      3.56155615
Cu     -0.35811741     -6.25885715     -1.09831009
Cu     -0.71843688     -2.22461177      3.78336642
Cu      2.04787437      0.22737630      0.69067486
Cu     -4.64880729      0.19469743      5.58172128
Cu     -1.92288171      1.53022362     -3.09224951
Cu      1.07496872      4.24716029     -0.46877298
Cu      1.09519000      2.05844567      5.08124137
Cu     -3.02022838     -0.68311085     -2.47631173
Cu     -4.40329891      2.96543459      2.57600372
Cu     -0.64444688     -1.58018590      6.18195532
Cu     -2.44418959      1.77527018      1.64565083
Cu     -1.41792861      4.51237677     -0.29803202
Cu      0.79289242     -0.35891137      4.53431292
Cu     -1.79269045     -2.24790874     -0.93557293
Cu      2.36207929     -2.83579815     -1.09541645
Cu     -3.15712837      1.36550305      4.01322431
Cu      3.17770028      2.07817814      3.46626621
Cu     -5.09005403      2.56450431      4.93587441
Cu     -1.90997506     -3.98322727      0.95771895
Cu      0.86448588      1.80699361     -0.81716658
Cu     -3.91419453      1.51144528     -1.54504586
Cu      0.48550752     -1.61619426     -0.06324517
Cu      1.23217429      3.75140339      3.20510866
Cu     -3.11385098      2.06715451      6.36266162
Cu      2.80766182     -0.33270433      3.00845604
Cu     -2.32479856     -6.29000402      0.43682947
Cu     -2.82455141      3.66386593     -2.17615574
Cu     -5.96797405     -2.91007985     -0.15909280
Cu      1.77732793     -0.35192310     -1.67808984
Cu     -0.05614414      5.33582589      1.65161847
Cu     -3.74202331     -2.26566118      0.63921091
Cu     -2.74461864     -0.06533672     -0.06013585
Cu      4.26241641      0.91110253      1.44556992
Cu     -0.94482731      3.25796083      5.90880022
Cu      0.05740130     -3.94606411     -0.56710025
Cu      0.00060107     -2.83376329     -4.76594712
Cu      1.52564840     -0.98012131     -4.09317196
Cu     -2.23184532      4.19546225      2.09350555
Cu      0.32164061     -3.34350840      1.80201357
Cu     -0.19176783     -4.56850517     -2.98379121
Cu      2.55600239     -2.21208728      1.25965239
Cu     -5.23376126     -3.49261766      2.15573181
Cu     -1.13418349      0.83391767      5.42040733
Cu     -1.14225966     -4.64284116      3.34299994
Cu      2.98448438      0.33627019      5.36274508
Cu      1.92536399     -1.89961058      6.05230558
Cu     -2.67599121     -1.03160545      4.66120681
Cu      1.82129472     -5.16415659     -1.67392922
Cu     -2.21486833     -4.63606748     -1.46241030
Cu      0.98886852      1.35565894      2.69416064
Cu     -3.42534170     -5.21142257      2.45740205
Cu     -0.07295591     -5.71962303      1.29804312
Cu     -2.95957227     -2.84699925      2.97490063
Cu     -4.74983500      1.15698252      0.83427512
Cu     -0.46415773      0.54915053      0.77971918
Cu      4.96913253      0.33435055      3.80005938
Cu      0.22914250     -2.21370701     -2.40202933
Cu     -1.50687949     -1.62735365      1.43141139
Cu     -2.64456228     -0.31622645      7.00938510
Cu     -4.98544282     -0.72405453     -0.86015201
Cu     -0.35504261      3.38053554     -2.34326742
Cu      3.98064342     -1.88134700      4.50668401
Cu      3.05771332      0.87813307     -3.31295172
Cu     -0.96551430     -0.67822064     -3.97070699
Cu     -0.17270445      2.96180140      1.22143274
Cu     -0.77222568      4.92554457      3.99846169
Cu     -2.95553819      3.77344813      4.48712484
Cu     -3.63143237      3.34736478      0.15701528
Cu      2.03421896     -3.41012131     -3.47961028
Cu     -3.50651308     -0.43741958      2.32428476
Cu      2.32111050      5.01586441      1.47462738
Cu     -1.08307207      1.51654081      7.69875075
Cu     -4.40990331     -4.02579251      4.48047423
Cu      0.59114549      1.22578084     -3.26399550
Cu     -4.13263107     -2.20166039      6.17395641
Cu      0.38251090     -3.79464030      5.28045920
Cu      2.37890909      2.64218741      1.07486623
Cu      1.44046628     -4.93777087      3.25804499
Cu      2.14628075      3.02746125     -2.43159246
Cu     -5.74742884     -1.09003843      1.52088333
Cu      2.87773847     -4.06046768      5.15042799
Cu      0.88470083      0.30248957      6.87542956
Cu      0.67833904     -1.00560412      2.22270964
Cu      1.76704331     -2.52260708      3.67911066
Cu     -1.21895132      0.16523995      3.09527230
Cu     -2.16803706     -3.44758071      5.34523153
