         100
Cu Cu     -309.462144        0.000000     -309.462144   0.06250-309.46214
Cu      1.96335939      0.26783874      7.02770605
Cu     -0.79614412      1.68149188      9.90952382
Cu     -3.78805180      0.92663238      0.61852731
Cu     -5.91642744     -1.79002448      6.00124300
Cu      3.84993817     -1.35386754      6.97147700
Cu      2.80676040     -2.15612003      0.71468622
Cu      1.20421367     -3.73833694     -0.47366787
Cu     -1.80049211     -0.33127632      4.07093101
Cu     -0.02541925     -1.94309017      3.94664218
Cu      4.15421965      1.00517192      6.10621316
Cu      2.15879668     -1.24822669      2.96243397
Cu     -5.67560507      0.56718926      5.15854158
Cu     -1.38778259      1.84791799     -1.83820357
Cu     -1.43568403     -3.45630195      7.78346136
Cu     -3.56333862     -3.89629952     -0.18362026
Cu     -0.33236249     -5.87494184      5.33661483
Cu     -4.29630581     -3.01269882      2.06242487
Cu      0.97097344      4.23464965      1.62922682
Cu      0.03680033     -5.21634991      1.25984699
Cu     -3.06362902     -0.01752102     -1.60561477
Cu      1.50737285     -1.38697203     -1.33583649
Cu      0.11355479      3.44424206     -0.63560412
Cu      0.19316271     -3.51339578      5.79837879
Cu     -5.31175700      2.89670758      4.28360118
Cu     -1.15687319      1.95386502      4.50755853
Cu      1.93789858     -1.67208547      5.44906893
Cu      3.97880795     -2.90497203      2.85050025
Cu     -1.65160306     -1.88304792      5.91386002
Cu     -3.08788122     -1.54436421      0.30968271
Cu     -1.95658719      1.23725351      2.24400549
Cu     -4.39848031     -0.19909833      7.26719460
Cu      4.28837164     -0.50560360      1.97035441
Cu      1.73155327      4.90704138      3.96593285
Cu      0.27423105      0.38040618      3.09462962
Cu     -4.54892603     -3.39312246      4.61912294
Cu     -1.61805965      2.88287341      6.76188827
Cu     -1.20451612     -4.40540863     -0.79783613
Cu      3.86491983      0.57808166      8.54214095
Cu     -0.70926149     -0.56170457     -2.20713358
Cu      0.78278440      2.25007451      5.98085633
Cu      2.35099923      2.66572256      0.22535038
Cu     -3.06392846     -4.94666855      3.17967023
Cu      0.44807403     -5.05249645      7.61851593
Cu      3.76437846     -3.32492115      5.33386265
Cu     -2.12220246     -1.02928081      8.19558218
Cu      0.99026127      2.66935991      3.53112183
Cu     -0.10024549     -0.70805901      9.64438029
Cu      3.61052552     -5.21573316      3.72198386
Cu      2.05784622     -5.17624274      5.67753361
Cu      2.44940604     -4.50940347      1.63331282
Cu      3.00046208      3.01736705      5.03139677
Cu      4.51997826      1.83625844      1.13569548
Cu     -0.64248659     -2.07055919     -0.26554217
Cu      2.23763021     -1.28085614      8.91872402
Cu      1.79701619     -3.57668332      3.83609160
Cu     -1.24650979      3.59167748      2.62680176
Cu      4.14230603     -0.94919564      4.47550222
Cu      2.24355153      0.69801092      4.57994503
Cu     -5.42378046      0.98038695      2.62214756
Cu      4.37816483      1.43420091      3.58836299
Cu      2.19036967     -3.26392498      7.33538592
Cu      0.39357930      3.11775380      8.24108459
Cu      0.84707410      1.06888357     -1.04500078
Cu     -0.44125619      4.25683655      4.95620397
Cu     -2.76143389      1.40248801      8.46410202
Cu      3.16367885      3.40096004      2.53187191
Cu     -1.82374920     -3.50344287      1.45440999
Cu      2.73256168      2.55345877      7.51227273
Cu      3.06228499      0.24493139     -0.11000495
Cu     -0.05488818     -2.95651208     -2.47528963
Cu      0.06319010     -0.04112810      5.51757619
Cu      1.24371700     -5.92164957      3.37439635
Cu     -0.39644750      0.82821693      7.72599508
Cu     -3.60833792     -0.65733547      2.54511822
Cu     -3.73819326      2.89251794      2.31529265
Cu     -4.09048350      2.18895301      6.39190034
Cu     -0.62043673     -4.26007590      3.50315480
Cu     -3.85148746     -1.06067874      5.03304116
Cu      0.17921587      1.94006767      1.22964489
Cu     -2.30320759      0.53067983      6.24577565
Cu     -5.73208717     -1.40933586      3.49787897
Cu     -2.06604035      2.78848586      0.34426984
Cu      0.61891953     -2.85418765      1.74578341
Cu     -1.25153285     -1.19187760      1.91662766
Cu     -3.54952729      1.27920500      4.17540067
Cu     -3.72947766     -2.64556486      6.92241843
Cu      1.55760165      1.14608862      9.27876836
Cu     -2.45382693     -2.61692615      3.65661754
Cu     -5.41326516     -0.99345981      0.99259834
Cu     -2.92093442      3.62444314      4.62440284
Cu      0.28649670     -1.59659819      7.39141866
Cu      0.54720643     -3.13150113      9.22118384
Cu     -2.40393142     -2.44008302     -1.89280897
Cu     -2.26030156     -4.26880061      5.50814072
Cu     -1.17460777     -6.54273641      3.02689295
Cu      0.92321698     -0.49404544      0.88031321
Cu      1.53083163      4.48964884      6.42615632
Cu      2.40096628      1.10651566      2.11879140
Cu     -1.32750920      0.34664550      0.04287917
Cu     -2.37293000     -5.79569769      0.96397291
