         100
Cu Cu     -308.886105        0.000000     -308.886105   0.05631-308.88610
Cu     -4.93769379      1.95014149      0.56396245
Cu     -3.54220579     -2.24952254     -4.06843302
Cu     -1.11605405     -0.12909280     -1.39434662
Cu      0.10521296     -0.03483888      2.43114402
Cu      4.68740726      0.72076722     -1.18157122
Cu      4.66266861      1.16497688      3.61976379
Cu     -4.68738354     -0.26620398      1.85654070
Cu      2.66248007     -2.01603273     -0.44517932
Cu      4.15683187     -1.47069493     -2.28287943
Cu     -1.78203654     -3.21464680      4.58195045
Cu      3.82280939      0.65826540     -3.57165474
Cu      4.27529985     -1.05648812      2.53862907
Cu      2.91963647      2.42558264     -0.66112676
Cu      1.51397975     -0.09133108      6.41297466
Cu      0.37013867      0.41117789     -3.22920945
Cu     -2.71667943     -1.44889796      6.13391131
Cu     -0.32470075      3.58574286      4.75909304
Cu     -3.71762534      3.09802592      5.23350499
Cu     -0.62827711      1.41934731     -5.19320339
Cu      2.19384466     -1.23412195     -3.85257078
Cu      1.94084132     -1.66029468      1.93482262
Cu     -1.99428436      1.63624320      4.48322406
Cu     -0.91176446      1.15017655      0.62514382
Cu     -0.22158515     -1.98011493      6.16648578
Cu     -1.32202330     -0.75320193      4.29454418
Cu     -0.38552563      3.44930487      0.37837902
Cu     -2.91161214      3.33228470     -3.13403149
Cu     -1.81265435     -3.87874783     -3.26709933
Cu      0.41419014     -2.85631707      0.30965489
Cu      1.89940326      4.18134690      0.96555844
Cu     -5.06274394     -2.73933784      2.08912509
Cu     -3.36482029      0.93305777      6.38597488
Cu     -0.82759741     -4.88654942      2.91987272
Cu     -0.41909252      2.87830100     -3.14909804
Cu     -3.68388627      3.78571858     -0.75596394
Cu      2.40606190      0.58567245      3.02460602
Cu     -0.59983240      2.38354907      2.63877274
Cu     -0.94656617      0.40342923      6.46435369
Cu      0.73033986     -3.68249853      4.56476207
Cu     -2.35146679     -5.98818630      1.28526664
Cu     -1.40217836      4.62436675     -1.51769927
Cu     -5.52366503     -1.70034729     -2.61953407
Cu      0.67855793     -1.76784172     -1.95671494
Cu     -1.90018181      2.24182477     -1.23663963
Cu      1.70158006      3.06376648      3.31347836
Cu     -2.69178654      2.69274361      1.19866317
Cu      3.64758351      2.46256562      1.78010657
Cu      2.74475479      1.73117229      5.17688827
Cu      0.12918563      5.78057640      0.14386635
Cu      0.14558837     -0.94204624     -5.30084864
Cu      2.06520800      2.32523957     -3.06150070
Cu     -2.37672888      3.91543023      3.31143127
Cu      3.73661452     -3.24454199      1.38283966
Cu     -2.09213603     -4.98929081     -0.98218614
Cu      2.21187208     -4.42619407     -0.23443697
Cu     -5.79887540     -2.73230367     -0.35365362
Cu      4.94430944     -1.40512535      0.12893033
Cu      0.20722716     -4.23776344     -1.77699386
Cu      0.44064112      1.15772620      4.52030962
Cu     -1.37449334     -1.20738943      0.82995983
Cu      0.73837344      2.29608521      6.60755176
Cu      1.49351157     -4.12979146      2.18182124
Cu     -3.86044894     -3.37852978     -1.82874960
Cu     -2.82508523     -1.90973905      2.66937087
Cu      3.47623357     -0.65724513      4.90766235
Cu     -3.30897004     -4.34726000      2.90296330
Cu     -2.33213986     -0.43058515     -5.34132594
Cu      1.35323264      1.82130456      1.18480119
Cu      1.83529895      0.91033352     -5.07439344
Cu      3.14355534      0.21378887      0.66950089
Cu      2.47401669     -3.35139144     -2.49618466
Cu      2.23092746     -2.45198271      6.12568058
Cu     -5.38966747     -0.30085127     -0.58983944
Cu     -3.61481314     -1.95795990      0.24877316
Cu     -2.12758254      5.03476477      0.91995925
Cu     -3.84898603     -0.18062473      4.26888897
Cu      0.85948043     -0.41206251      0.09573331
Cu     -1.32267126     -1.46790986     -3.42864831
Cu      2.99927769     -2.87426140      3.79725548
Cu      5.39784245      0.79042044      1.25784261
Cu     -0.09284039      4.75607087      2.44959630
Cu     -2.38455844      0.48901616      2.39793227
Cu     -0.08422214     -5.26021155      0.53343538
Cu     -1.69537039      2.76691005      6.62211799
Cu      1.11316865      4.11768509     -1.46564796
Cu     -1.86045990     -3.60160187      1.06271994
Cu     -4.21612472     -2.60879089      4.49920529
Cu      0.57769950      1.75828771     -1.18732343
Cu     -1.59680472     -2.57941713     -1.20515174
Cu     -4.21878253      1.54535920     -1.89043146
Cu     -3.33640671     -0.90165593     -1.99401472
Cu     -3.13316078      0.45499537      0.03433449
Cu     -4.36312906      0.09664051     -3.94673778
Cu      0.45023019     -3.07703826     -4.01378232
Cu      1.16892758     -1.24542427      4.27505473
Cu     -0.33453274     -2.47742954      2.69832906
Cu     -4.09965286     -4.40445376      0.47288127
Cu     -2.15731857      0.97320877     -3.33116648
Cu     -4.16127408      2.01627296      3.05449645
Cu      2.35633372      0.14869464     -1.74254236
