         100
Cu Cu     -309.462129        0.000000     -309.462129   0.06250-309.46213
Cu     -0.95847911     -1.63683133      3.03198273
Cu      0.56346227      2.20235810      2.27585206
Cu     -0.17831875      1.12900627      0.09112585
Cu     -4.96296566     -1.68621969      1.95087257
Cu      4.22338755      1.84002166      4.61818418
Cu     -2.57663007     -5.02332667      1.32249618
Cu     -1.19546428      3.14848413      3.78879870
Cu     -0.11578928     -2.97128610      4.85819781
Cu     -1.82301968     -0.31228263      1.20982813
Cu      0.63417752     -0.27541552      1.89425146
Cu     -0.95189826      2.53816773     -1.70068921
Cu     -4.71217798     -3.45685403      7.69608437
Cu      0.11265536      2.64092869      7.08240382
Cu     -1.73734297     -4.34297840      6.14156505
Cu     -1.17683024     -0.95480947     -1.08389567
Cu     -0.67870539     -2.17193858      7.10844559
Cu     -0.38551950      0.93066564      8.90177254
Cu      2.25882743      1.14267778      0.77483257
Cu      3.03271094     -1.52517978      4.13361266
Cu     -0.25436652      3.64186123      0.42792753
Cu     -4.10550480      3.18778883      1.89221588
Cu     -4.34365975     -3.98379541      2.89331795
Cu      2.18830634     -3.91313298      4.67672496
Cu     -0.32851655     -2.32005123      0.83216772
Cu      0.56209407      4.25179599      5.15849176
Cu     -1.52208423     -0.87713139      5.21246871
Cu      5.14124811     -1.96074983      1.44226649
Cu     -4.42067588     -3.59115031      0.38826510
Cu     -1.07306873      0.73331538      3.39596812
Cu     -3.28459794      1.71590087      3.68860114
Cu     -4.85568694     -2.03961594      4.53411552
Cu      2.49321919     -3.16020105      8.10044188
Cu     -4.33976780      0.87907454      7.82208155
Cu      4.75578869     -0.05792036      3.01243641
Cu      0.31974785     -2.98919622     -1.38426052
Cu     -2.07811438     -3.32079825     -0.55361549
Cu     -3.74448594      0.09475695      5.52706659
Cu      2.00263391      1.19309058      8.00576114
Cu      2.96813688      0.53843022     -1.46557830
Cu      1.42796740     -4.97791396      2.42247905
Cu     -1.28411085     -1.38065439      9.39891305
Cu      1.24996582     -2.58062516      2.79497312
Cu     -1.32011136      5.56230042      4.17044208
Cu     -0.81940752     -3.98569294      2.67508200
Cu      1.96431029     -3.27363406      0.53648944
Cu     -2.26538422      2.32037297      7.93136994
Cu      2.21016403      3.61557576      1.11790029
Cu      1.64342070     -1.92445593      6.23082497
Cu     -0.17176943     -4.72740392      0.42913915
Cu      0.16453090     -3.40656098      8.98920119
Cu     -2.12075213     -0.11878602      7.46020721
Cu     -3.13190804     -2.19504598      6.44409363
Cu     -5.36276492     -1.19658217      6.84083145
Cu      0.77885254     -0.63448141      4.35151474
Cu      2.44433727      0.81278493      3.24661661
Cu     -1.90959226      2.12421612      1.58354457
Cu      2.89110538     -1.13705973      1.67435378
Cu     -2.43969041     -5.38879449      3.87444561
Cu     -4.16995773     -4.29378112      5.45239411
Cu      4.56253230      0.32053211      0.51216470
Cu     -3.74751889     -1.41522580      8.75547957
Cu      1.10127054     -1.12161351      8.57010937
Cu     -2.72210026      0.63926945      9.71146917
Cu     -0.68359883     -6.34881911      2.31455743
Cu      3.89725991      2.55718888     -0.37722533
Cu     -2.31373999     -3.45194491      8.41360429
Cu     -4.07849161      0.71311182      1.44430763
Cu     -5.90937497      1.08464200      5.85581371
Cu      0.22462926      0.16712455      6.63933135
Cu      4.08427812      2.23081772      2.08508085
Cu      4.30005924      1.41038425      7.07201629
Cu      3.43707825     -0.86830200      7.61864929
Cu      3.95336138     -2.76226374      6.05018192
Cu      0.69450521      1.82115574      4.77954386
Cu     -2.01709464      4.59036280      1.98198552
Cu      1.49779888      2.58304826     -1.06838634
Cu      0.03527318     -5.37613285      4.52796664
Cu     -1.66387959      1.56307603      5.66474769
Cu     -2.55434970     -2.97243507      4.21305183
Cu     -3.58418107     -1.27869540     -0.16244674
Cu     -3.90457697      2.57914454      5.98714495
Cu      0.43532314      4.63896942      2.66255242
Cu      4.82745659     -0.46386793      5.51378418
Cu      2.53677147      0.39090655      5.71541268
Cu      2.47392913      2.83918212      6.14555494
Cu     -2.64266494      1.08370383     -0.63581495
Cu      5.27003976     -2.35554490      3.90747118
Cu      0.53604562      0.55758103     -2.15160321
Cu     -2.68501984     -2.60901059      1.71342733
Cu     -3.39951964      4.18202107      4.09037737
Cu      3.52493827     -3.46952404      2.54569790
Cu      1.31238334     -0.94465103     -0.37966117
Cu     -5.44505439      2.70499283      4.00490506
Cu     -5.40331738      0.26735050      3.57980804
Cu      0.74440495     -4.27461898      6.75023316
Cu     -2.69123685      3.52243731     -0.19979974
Cu      2.37329794      3.29842934      3.63964710
Cu      3.62774354     -1.72476206     -0.55670196
Cu     -1.78934690      3.99606806      6.04829226
Cu     -3.17434311     -0.71275898      3.28121622
