         100
Cu Cu     -307.132966        0.000000     -307.132966   0.12035-307.13297
Cu     -3.87499299      4.38503487      0.67919984
Cu     -3.71339964     -2.98981301     -3.38430395
Cu     -1.04164960     -1.00522259     -0.87087017
Cu      3.10598335     -0.21226461      1.73199525
Cu      4.77016529     -0.13086951     -3.14292983
Cu      0.56660966      0.75471908      5.19001219
Cu      2.44895533     -0.39907076     -3.83644794
Cu      3.93638785     -3.21081841     -0.50848618
Cu      3.78264365     -2.21232489     -2.67458571
Cu     -3.07457924      2.50665206      4.11135610
Cu      3.47574728      1.95481338     -3.62266364
Cu      2.08280116     -2.10518800      0.54119560
Cu      2.95804956      4.17994347      0.77151754
Cu     -1.42584789      0.65736456     -4.80251363
Cu     -0.67103320      1.52627641     -1.02299734
Cu      5.27477487      0.50720810      0.67878637
Cu     -1.14001824      0.59215875      1.17418659
Cu     -4.48448960      0.48688040      4.45177606
Cu     -0.78783589      2.54165107     -3.26298872
Cu      2.03766566     -2.73592314     -4.36717738
Cu     -4.77692291      0.30254145      1.66106414
Cu     -0.61529848     -0.75500461      3.71793232
Cu     -4.71161324      1.72767513     -2.24191638
Cu     -0.64613491     -1.31889390      6.04345181
Cu     -2.12410056     -2.53427434      3.04647153
Cu     -0.96913557      3.11463806      0.86826124
Cu     -3.11249986      3.35199912     -3.22153090
Cu     -1.96473284     -4.79542636     -3.64752862
Cu      0.22892623     -3.16375276     -0.55246573
Cu      1.63052932      2.59661029      4.09027514
Cu      3.46097344      3.45053316     -1.52540826
Cu      1.66491966     -1.52379674      5.24827555
Cu     -5.05234573      2.25204176      0.12116800
Cu     -0.65087965      4.25539884     -1.47216250
Cu     -1.69468972      5.41635621      0.49476626
Cu      1.17684453      2.97034755     -0.62116040
Cu     -0.88450961      1.97010901      3.12362392
Cu     -0.02012539     -2.66166644     -3.04045243
Cu     -3.15562839      0.66040986     -0.26494466
Cu     -1.85826312     -3.46961525      0.67340379
Cu     -2.88022339      5.27495342     -1.61252579
Cu     -5.58345313     -2.40674921     -1.80770141
Cu      1.56597329     -1.44640354     -1.77789036
Cu     -2.72469500      2.93945642     -0.87412739
Cu      2.20612649     -3.73551130      4.15272743
Cu     -1.51666937     -2.85075958     -5.01310162
Cu     -1.86301123      0.80594719      5.29760499
Cu      5.08974156      0.17218772      3.06725321
Cu      0.64609388      4.97585345      0.82924859
Cu     -0.00140299      0.06635850     -2.84394718
Cu      1.49082558      3.38720500     -3.00831638
Cu     -2.25372564      4.27112474      2.63761750
Cu      3.25944658     -3.63265487      1.97040382
Cu     -2.31848667     -5.65046600     -1.33532873
Cu      1.99571661     -4.70504355      0.09958865
Cu     -5.14649992     -2.04274990      0.65104390
Cu      5.65601490     -1.34683980     -1.08756831
Cu     -0.04730109     -5.08147464     -2.08070455
Cu      0.08666750      4.26634923      3.13149156
Cu     -4.45620524     -1.62826270      3.10428052
Cu      2.88203596      0.36188302      4.19540770
Cu      4.81866320     -1.81945541      1.28582613
Cu     -3.98497983     -3.92284207     -0.59189691
Cu     -3.77718866      1.34042736     -4.55221650
Cu      3.50521127     -0.51559489     -0.77475572
Cu     -0.32916941     -1.68713692      1.41744380
Cu     -3.23642341     -1.04433610     -5.20970157
Cu      3.59683032      2.12713814      2.51438327
Cu      1.06398327      1.45921091     -4.50847990
Cu      5.04315994      2.94840693      0.56083863
Cu      2.05473944     -3.87011443     -2.19137565
Cu     -0.12042043     -3.09154084      4.28608724
Cu     -5.44150552     -0.10213643     -0.79280020
Cu     -3.92325918     -3.73432072      1.93410783
Cu     -3.12629104      2.20312630      1.65982954
Cu      0.71025338     -3.86273565      1.99952646
Cu      1.07220081      0.16312095      0.16813986
Cu     -1.98376584     -1.28503651     -3.21500233
Cu      3.84796187     -1.87040536      3.64322082
Cu      4.82109718      1.49801524     -1.47880014
Cu     -2.86814391     -1.31647803      1.12410459
Cu     -2.67484605      0.18959298      3.01387249
Cu     -1.40412566     -4.80796393      2.69710022
Cu     -0.67202879      3.02052817      5.19034940
Cu      1.72621165      5.20478769     -1.31984031
Cu     -2.88536599     -5.69955543      0.97815689
Cu     -2.88399448     -1.35942433      5.00375627
Cu      1.27819223      2.69123115      1.71169608
Cu     -1.89414713     -3.32238382     -1.74457923
Cu     -4.90515347      4.02574096     -1.55582936
Cu     -3.42640808     -1.56280412     -1.20122302
Cu      1.02210761      0.56959729      2.64530675
Cu     -4.48044359     -0.57922869     -3.13981844
Cu      0.35103486     -4.52270864     -4.45955443
Cu      1.57559706     -1.76450322      2.89704390
Cu      0.26795320     -1.10192872     -4.95488443
Cu     -0.45254302     -5.41587402      0.36321286
Cu     -2.47112848      0.92815623     -2.54477388
Cu      3.03335426      1.68698289      0.21321488
Cu      2.00949721      1.12930153     -1.95842118
