         100
Cu Cu     -309.462111        0.000000     -309.462111   0.06250-309.46211
Cu      1.62961460      2.48486164     -1.15677507
Cu      0.66735612      2.12119403      2.18240359
Cu     -0.08173747      1.06313111     -0.00764783
Cu     -0.81739865      2.48632070     -1.80374162
Cu      2.51563392      0.69558524      3.16249212
Cu     -2.60712835     -5.04028823      1.20389467
Cu     -1.08117248      3.10017514      3.68718823
Cu      0.26501501      0.09123294      6.54251408
Cu     -3.53237364     -1.27590793     -0.28320934
Cu      0.69309187     -0.35705706      1.79914380
Cu     -1.76043711     -0.34587297      1.10058603
Cu     -4.74637338     -3.43901643      7.56839653
Cu     -0.19238393     -4.79118852      0.32334986
Cu     -0.12587323     -3.03904086      4.75617310
Cu     -1.11317692     -0.99871653     -1.19021905
Cu     -0.68568736     -2.22996328      7.00466230
Cu     -0.34331558      0.86475609      8.80211772
Cu      2.35125791      1.03011599      0.69041081
Cu      3.05263798     -1.65492241      4.05074012
Cu     -0.11138548      3.57604113      0.32955423
Cu     -3.97863946      3.19709244      1.77434935
Cu     -4.36178190     -3.96770555      2.76610844
Cu      2.15950066     -4.02597036      4.58514311
Cu     -0.30328907     -2.38171879      0.72906948
Cu      0.68954242      4.16946024      5.06666543
Cu     -1.49335543     -0.91887001      5.10491802
Cu      5.17041731     -2.12804127      1.37329962
Cu     -4.41697411     -3.57164395      0.26094295
Cu     -1.59077564      1.52312793      5.55903427
Cu     -3.19636738      1.70830745      3.57376802
Cu     -4.84486631     -2.01636406      4.40633321
Cu      2.46022287     -3.27950921      8.01500854
Cu     -4.29165694      0.88917683      7.70045216
Cu      4.81049537     -0.22020315      2.94243796
Cu      0.34453273     -3.06112199     -1.48481941
Cu     -2.06457368     -3.34634294     -0.66781787
Cu     -3.69843049      0.09457903      5.40773626
Cu      2.05480131      1.08163087      7.91952919
Cu      3.06399671      0.41299867     -1.54538382
Cu      1.39105320     -5.07444751      2.32541203
Cu     -1.28941400     -1.42957853      9.29266435
Cu      0.81653526     -0.72007053      4.25694696
Cu     -1.16146020      5.51581477      4.06870806
Cu     -3.74945038     -1.41655531      8.63469537
Cu      1.25834702     -2.67445280      2.69990612
Cu     -2.19047447      2.29066790      7.82284216
Cu      2.49000092      3.18163153      3.55744959
Cu      1.64484163     -2.02711910      6.14052001
Cu     -0.83730899     -4.03822833      2.56724052
Cu      0.12291485     -3.48208334      8.88886762
Cu     -2.09033481     -0.15063418      7.35005791
Cu     -3.13527582     -2.20656813      6.32632807
Cu     -5.34898031     -1.16614249      6.71133402
Cu      1.97191532     -3.38005109      0.44469874
Cu      4.30687310      1.68764736      4.54464938
Cu     -1.80191290      2.09099388      1.47661399
Cu      2.93426969     -1.26231864      1.59156424
Cu     -2.49171966     -5.41014048      3.75625845
Cu     -4.20826546     -4.28381855      5.32651407
Cu      4.64039505      0.16425027      0.44185016
Cu     -2.35218059     -3.47972036      8.29937265
Cu      1.10521166     -1.21492732      8.47797595
Cu     -2.68943572      0.61700018      9.59867197
Cu     -0.74623867     -6.40309997      2.20489124
Cu      4.02396457      2.41371681     -0.45062174
Cu     -1.78065600     -4.37958499      6.02944106
Cu     -3.99684979      0.72350372      1.32319603
Cu     -5.84545934      1.12545893      5.72543896
Cu      0.19827929      2.56636484      6.98688458
Cu      4.18964304      2.08264125      2.01230470
Cu      4.36125143      1.25481637      6.99772403
Cu      3.45035581     -1.00667079      7.53890332
Cu      3.93698532     -2.91142921      5.97209121
Cu      2.56813631      2.71907628      6.06330946
Cu     -1.86427562      4.55779046      1.87589309
Cu      2.34769696      3.50262803      1.03478200
Cu     -0.02094774     -5.44595882      4.42386396
Cu     -1.00269054      0.68367438      3.29268847
Cu     -2.56043919     -2.99275329      4.09733060
Cu     -4.93040493     -1.65788062      1.82228139
Cu     -3.81309936      2.58131948      5.86965430
Cu      0.58378975      4.55909326      2.56954916
Cu      4.85960827     -0.63005415      5.44248932
Cu      2.58611569      0.27054250      5.63101918
Cu     -0.93197379     -1.68795813      2.92644481
Cu     -2.54291000      1.06685990     -0.74808771
Cu      5.27374486     -2.52975436      3.83790671
Cu      0.63698814      0.47847751     -2.24600902
Cu     -2.66978659     -2.62485609      1.59687914
Cu     -3.26633490      4.17616371      3.97730356
Cu      3.51697541     -3.60738810      2.46205545
Cu      1.37285810     -1.03857677     -0.47064648
Cu     -5.33895264      2.73859374      3.87920799
Cu     -5.34216041      0.30126315      3.45097379
Cu      0.69914661     -4.35915190      6.65188497
Cu     -2.54619853      3.50468821     -0.31062760
Cu      0.77705696      1.73665666      4.68683372
Cu      3.67429212     -1.86304357     -0.63443248
Cu     -1.67149617      3.95801846      5.94370377
Cu     -3.13087460     -0.72108338      3.16399561
