         100
Cu Cu     -308.984522        0.000000     -308.984522   0.05843-308.98452
Cu      0.54566971      0.42259829      4.53038231
Cu     -3.81384809     -3.21470852     -2.30679781
Cu     -0.88956926     -0.04136243     -1.59470568
Cu      4.33524418     -1.72190235      2.39809459
Cu      4.91085770      0.44560096     -1.07933544
Cu     -0.67159078      0.93514470      0.58091337
Cu     -6.18990220      0.96124098      2.44736636
Cu     -5.93638041     -1.31315273      3.42818733
Cu      4.31901011     -1.58219874     -2.43831158
Cu      1.43172727     -4.58884030      1.61261440
Cu      4.11643784      0.68207263     -3.43778065
Cu      5.56527502      0.19877548      1.36396975
Cu      3.22079910      2.16655715     -0.40812495
Cu      1.50213127     -1.07643894      6.29016380
Cu      0.67798322      0.66420649     -3.37775914
Cu     -5.39895283      0.74242432      4.83521513
Cu     -0.10725181      2.84366251      5.04089957
Cu     -3.40395348      0.18326455      6.31442420
Cu     -1.84358440      1.31121459     -3.35626416
Cu      2.40133758     -1.05283077     -3.96889597
Cu      1.58583412      1.42966700      1.31154463
Cu     -2.91804560      0.44031865     -0.08578502
Cu     -2.35987746      2.43454187      1.33566280
Cu      0.24522799     -0.50192548      2.29063340
Cu     -3.92033294      1.65631876      3.07385801
Cu     -0.05418641      3.21947814      0.67750512
Cu      0.80525500      1.30157892      6.74794884
Cu     -1.71165301     -3.57706505     -3.81773918
Cu      2.74237742     -2.25615759     -0.72458177
Cu      2.24539336      3.76946392      1.39754569
Cu     -5.08400943     -2.89658876      1.63787394
Cu     -3.63757100      2.47426647      5.36518029
Cu     -2.77520426     -2.28719490      2.27714781
Cu     -0.01565224      3.07202887     -2.83242578
Cu     -3.91992943      1.80432870     -1.81233105
Cu      0.43345270     -3.05953010     -0.13165933
Cu      0.24462036      4.25320156      2.90334485
Cu     -1.61822631      1.91750471      6.76250390
Cu      0.63283876     -4.37644232      4.01608572
Cu     -2.46748903     -6.14988781      0.43735482
Cu     -0.97057861      4.67924827     -1.01565179
Cu     -5.82706882     -2.60712383     -0.75125426
Cu      0.78820598     -1.69836972     -2.24189552
Cu     -1.77233523      4.80690232      1.42785564
Cu     -3.57436324     -1.96636277     -0.18796609
Cu     -3.62677240     -0.70693210      4.02989409
Cu      3.88934715      1.88705615      2.03383393
Cu     -0.95300506     -0.45682086      6.36321626
Cu      0.56465531      5.53537331      0.76043698
Cu      0.58470542     -2.78087166     -4.38923908
Cu      1.00720294     -0.65184030     -0.04024860
Cu     -2.11825216      3.44613230      3.60508017
Cu      3.73455952     -3.73733082      0.96848668
Cu     -2.09984633     -4.90479296     -1.68728947
Cu      3.30145429     -0.19720289      0.66060158
Cu     -6.66249921     -1.06392539      1.02078295
Cu      5.03798292     -1.82574591     -0.02571052
Cu      0.22741660     -4.16353384     -2.33503116
Cu      2.84756516      0.81177725      5.31360564
Cu     -0.26312402     -2.84179393      5.81751148
Cu     -2.14081348      0.13686176      2.29811002
Cu      2.18800843     -4.64651290     -0.79886940
Cu     -4.15437323     -4.41849133     -0.15598627
Cu      1.20559990     -1.96435707      4.01964986
Cu      3.50332108     -1.55492238      4.78338235
Cu     -0.93955310     -5.29959002      2.20866942
Cu     -3.39235248     -1.87439631     -4.30205695
Cu     -1.88072815     -3.76891903      0.46895798
Cu     -0.37116823      1.90241821      2.78556148
Cu      4.79317456      0.34638374      3.74157157
Cu      2.54077256     -3.32001881     -2.90956538
Cu      2.15694700     -3.42059594      5.74554580
Cu     -1.29467700     -1.39429658      0.51418767
Cu     -5.24047498     -0.12086525     -0.74845848
Cu     -1.62318774      2.34361226     -1.14162356
Cu     -1.22520224     -1.37725730      4.07335153
Cu      2.56010195      0.05322297     -1.75024912
Cu     -1.11759586     -1.09824369     -3.82445363
Cu      2.96394046     -3.61377583      3.39899345
Cu     -1.86824924      1.04213455      4.53375751
Cu     -3.35232299      3.86626351     -0.33460355
Cu     -4.08839383      3.93437437      2.09433435
Cu     -0.15237419     -5.45514665     -0.17611777
Cu     -1.84388570     -3.80793458      4.06697646
Cu      1.51785496      4.02215120     -1.03700181
Cu      1.93572318      2.39370137      3.58727902
Cu     -4.28287678     -3.10947342      4.05065179
Cu      0.86819542      1.66829673     -1.08310086
Cu     -1.54610909     -2.44562748     -1.69554806
Cu     -5.36554300     -1.40724292     -2.82742527
Cu     -3.17129165     -0.57904443     -2.28764498
Cu      2.00156884     -2.14808190      1.66298427
Cu      2.44899945      2.36815977     -2.79606657
Cu     -4.40534062     -0.45801004      1.64044680
Cu     -5.13819535     -1.53047627      5.78023097
Cu     -3.37848453     -4.68279262      2.23749099
Cu     -0.33183275     -2.91895957      2.26725641
Cu      2.53648126     -0.05602064      3.02860933
Cu     -4.72303148      1.94320116      0.65040414
Cu     -2.74275940     -2.19959268      5.82785042
