         100
Cu Cu     -308.201671        0.000000     -308.201671   0.13377
Cu      1.72218519     -3.82189332      2.82010551
Cu      1.32850340      2.19892023      6.72356410
Cu      2.76730337     -1.69698928      7.25924359
Cu      6.42373649     -3.97912350      7.02588552
Cu     -3.68214149     -3.42907307      8.91262243
Cu      0.49421464     -5.91364194      7.87104024
Cu     -1.24420268     -1.34860527     12.09712813
Cu     -2.14546419      2.75713027      9.31370769
Cu      2.59836604     -2.59002626      9.61363558
Cu      0.34010961      0.68362072     12.30334997
Cu      2.39972168     -5.09356432      9.27001612
Cu      1.76770331      1.12885110      8.92778086
Cu     -1.43489797     -1.44510591      2.20511430
Cu      1.12713755     -1.77580054     12.70301965
Cu      6.45724882     -4.02552211      9.50718226
Cu     -2.03808588      2.89275300      4.23206008
Cu      0.44937014     -0.38463318      3.73046265
Cu      4.64802503     -5.22217995      5.76605847
Cu     -1.55027810     -1.82246239      8.77421966
Cu      6.90467764     -1.84297450      5.83124859
Cu      4.00703178     -3.64515074      3.70190150
Cu      4.29537895      2.15219085      5.15916737
Cu     -4.43434684     -0.94850283      5.83606818
Cu      4.63634461     -2.87653428      8.33528336
Cu      4.56922774     -2.76190928      5.87226454
Cu      3.30307809      0.85302315      7.06134353
Cu      6.96140114     -1.90615094      8.37545324
Cu      4.32387292      0.61083940      3.22398904
Cu     -1.92131877     -3.47685880     10.57419454
Cu     -0.34468206     -5.18166360      3.83586615
Cu      2.18271391      1.18289651      4.52162614
Cu      2.21151468      3.54849804      4.85778345
Cu      1.98253799      3.49975951      9.09130023
Cu      5.16603728     -0.74113407      7.18911970
Cu     -0.33717914     -2.09547364      6.53066167
Cu     -1.80245378      0.71887655      3.17949953
Cu      5.57426596      1.76028016      7.27138889
Cu     -2.85883362     -2.45013039      6.86029921
Cu      2.65329178      0.14228384     12.97846251
Cu      5.40964758     -1.61613178      3.79120978
Cu     -2.14193349     -0.18507175      6.90695680
Cu     -0.18556234      3.62548034      5.53164037
Cu      4.36185689      0.35011459     11.25916201
Cu     -2.66802746      0.48327846      9.16155393
Cu     -0.08580675     -2.71489274      3.92346939
Cu     -4.27476500     -1.12736918      8.32964198
Cu      0.81476051     -1.01649908      8.43113530
Cu     -1.40012161     -6.00805104      6.23002116
Cu      5.42777593     -1.82382950     10.37104343
Cu     -1.80683125     -1.23142421      4.76449175
Cu      2.04791301     -2.58625234      5.09319542
Cu      0.76423159     -6.76089761      5.49593955
Cu      2.09649358      0.68025147      2.16786859
Cu      2.82147515     -4.08598911      7.03500539
Cu      2.42220539     -5.16826578      4.75473449
Cu      3.48217762     -1.97252147     11.85596892
Cu      0.79684499     -3.44298048      8.25329152
Cu     -0.47051140     -3.75457163      1.73219029
Cu     -4.06272102     -3.18940735      4.84429461
Cu      6.04358680      0.32691510      9.25860785
Cu      0.28078838     -2.40610482     10.44539588
Cu      3.53541708      3.30274029      7.17577535
Cu      0.53936135     -4.35044225      6.00473756
Cu     -3.69368746     -1.11232399      3.40174916
Cu     -0.50414401     -0.08263350     10.16116811
Cu     -0.36908671     -3.71383835     12.41667598
Cu      7.44829221      0.18656352      7.17137574
Cu      0.04506916     -4.86113009     10.12892080
Cu     -0.66526850      1.12315368      5.39844707
Cu      2.36407031      1.88764479     11.19253215
Cu      5.97480279      0.38242292      5.15927081
Cu      0.26737488      2.19029686      3.39065218
Cu      1.86934706     -0.48984190     10.74162591
Cu      0.92693438     -1.69658738      1.69204872
Cu      2.88700686     -1.47705820      3.07939832
Cu     -0.49946837      1.14997156      8.02266384
Cu     -3.55588341     -4.81160865      6.69381515
Cu     -3.16178639     -1.38008707     10.58329964
Cu      0.04805660      2.29644615     10.29712587
Cu     -2.04186033      1.13833988     11.45037645
Cu      1.18731705     -0.26354040      6.13550693
Cu     -2.41993666     -3.41445787      3.11300477
Cu      3.70818156     -0.48885063      9.12953459
Cu      1.58274974      4.70798366      6.92529849
Cu     -2.16297045      2.50323591      6.77341223
Cu     -1.69050164     -3.76887811      5.37975818
Cu      4.65813132     -5.30792648      8.27357506
Cu      4.06864317      1.97606214      9.28052953
Cu     -4.15749245      1.14526596      7.32759789
Cu      3.65712238     -0.61061809      5.20523299
Cu     -3.25563197      0.96777735      5.04600725
Cu     -0.16063752      0.54336923      1.46137000
Cu     -2.87943266     -5.51353579      4.32072779
Cu      6.31822619     -3.85154479      4.53095086
Cu      2.73954407     -6.45374826      6.97891249
Cu      4.27343357     -4.07146853     10.55398088
Cu     -0.25464669      3.59499323      8.05604830
Cu     -1.47136210     -4.23339261      8.00321687
Cu      1.92176324     -3.93950812     11.54324293
Cu     -5.23712848     -3.01170564      7.02037948
