         100
Cu Cu     -308.170597        0.000000     -308.170597   0.14100
Cu      1.47260876     -4.43008282      3.03042123
Cu      1.29670456      2.33955583      6.77042377
Cu      2.72708174     -1.65159580      7.12140874
Cu      6.42334822     -3.86315969      6.91794895
Cu     -3.69323612     -3.41950703      8.88988444
Cu      0.61511507     -5.86554293      7.64601729
Cu     -1.22793870     -1.40228276     12.05901948
Cu     -2.15638933      2.74743416      9.32421922
Cu      2.59900950     -2.65438998      9.51274480
Cu      0.34855432      0.63240700     12.26229986
Cu      2.38984221     -5.16883475      9.27991262
Cu      1.74511048      1.07996169      8.88682682
Cu     -1.17005938     -1.44349553      2.19306349
Cu      1.14738781     -1.82812378     12.67050499
Cu      6.49364192     -3.96020236      9.41121294
Cu     -2.05527225      2.95766999      4.21481805
Cu      0.35375788     -0.58242000      4.06308455
Cu      4.92305847     -5.40587709      5.92801364
Cu     -1.52648960     -1.87116586      8.73908675
Cu      6.78552582     -1.83685893      5.65324174
Cu      3.54512249     -2.92307580      3.24718463
Cu      4.16863736      2.12694991      5.01043996
Cu     -4.38596547     -0.92691064      5.75895782
Cu      4.65780476     -2.81531525      8.23615098
Cu      4.40382959     -2.78555721      5.71310793
Cu      3.25915940      0.88055946      6.99370768
Cu      6.97226584     -1.84681865      8.27126645
Cu      4.69393060      0.81344538      3.04596044
Cu     -1.91764444     -3.51950961     10.53798670
Cu     -0.70453353     -5.31861312      3.73252593
Cu      1.96610628      1.15107018      4.65389396
Cu      2.15994710      3.58326441      4.79934713
Cu      1.98216224      3.46810900      9.03491005
Cu      5.14336547     -0.72272869      7.06365577
Cu     -0.31648621     -2.09508922      6.47123039
Cu     -1.54592736      0.74697009      3.11809815
Cu      5.53698283      1.77747580      7.14556414
Cu     -2.85561833     -2.44458148      6.84990848
Cu      2.67379090      0.10135604     12.92437678
Cu      5.44352759     -1.47578899      3.63138906
Cu     -2.03190311     -0.18797526      6.84619065
Cu     -0.24093525      3.78096742      5.57908889
Cu      4.35274566      0.32865738     11.16658357
Cu     -2.66301519      0.46511017      9.09222749
Cu     -0.16587000     -2.90818371      3.90652126
Cu     -4.28863445     -1.11775697      8.27341118
Cu      0.83803979     -1.11537030      8.49674749
Cu     -1.25375266     -6.05665492      6.06978201
Cu      5.45479534     -1.80158204     10.29103192
Cu     -1.89663573     -1.36334149      4.73645618
Cu      2.63659076      2.08535790      2.60789630
Cu      1.10859517     -6.42899336      5.08214270
Cu      2.70868673     -0.53021289      2.94234750
Cu      2.84708445     -4.06062315      7.14742748
Cu      2.95925205     -4.72190261      4.83778611
Cu      3.49836385     -2.00332214     11.77151825
Cu      0.74139558     -3.49071644      8.18986174
Cu     -0.52189637     -3.86818146      1.67104099
Cu     -4.04424215     -3.13382126      4.80494553
Cu      6.00980916      0.34536848      9.13702864
Cu      0.29006328     -2.47369806     10.43290707
Cu      3.54209890      3.33648453      7.08170975
Cu      0.70001234     -4.22942043      5.79990690
Cu     -3.59774634     -1.03213519      3.22799354
Cu     -0.51289150     -0.11024446     10.12548613
Cu     -0.35140701     -3.78565633     12.37607239
Cu      7.44051927      0.19486468      7.06027374
Cu      0.03940043     -4.92080374     10.05284580
Cu     -0.64313869      1.28597710      5.38697168
Cu      2.36239401      1.84735649     11.13841980
Cu      6.05229953      0.48824763      5.07143797
Cu      0.29010383      2.47096148      3.45326041
Cu      1.87762999     -0.54073956     10.70455067
Cu      1.21431741     -2.14514214      2.08679668
Cu      1.94885418     -2.26080171      4.91446198
Cu     -0.51568205      1.23078261      8.04163598
Cu     -3.57009926     -4.82469707      6.69826168
Cu     -3.13627923     -1.39286310     10.53049809
Cu      0.04893404      2.28363914     10.29208077
Cu     -2.05731385      1.09439035     11.40924912
Cu      1.02159195     -0.10091117      6.40226750
Cu     -2.43381681     -3.36575951      3.06795926
Cu      3.68687470     -0.52515538      9.03933854
Cu      1.59235392      4.78757024      6.91938372
Cu     -2.16848097      2.57175400      6.76979393
Cu     -1.70488673     -3.83188913      5.41839973
Cu      4.68596871     -5.27548315      8.33509846
Cu      4.04500754      1.95945335      9.19027174
Cu     -4.09113540      1.12059200      7.20318239
Cu      3.75586792     -0.49115626      5.06925595
Cu     -3.12113628      0.92275135      4.93224995
Cu      0.70112326      0.49336340      1.96718769
Cu     -3.10185132     -5.44147694      4.34768763
Cu      5.86714505     -3.85069199      4.24601866
Cu      2.86395555     -6.41850904      6.86786627
Cu      4.31051902     -4.04892873     10.50135788
Cu     -0.28865268      3.70124810      8.09634388
Cu     -1.49966945     -4.31496457      7.96794198
Cu      1.94185488     -3.97863987     11.48796456
Cu     -5.22838526     -3.00275126      6.96307984
