         100
Cu Cu     -307.856077        0.000000     -307.856077   0.15011
Cu     -2.58664972     -4.23712022      9.98768663
Cu     -3.51303136     -4.94805116     15.36169767
Cu      1.24917001     -5.68916499     16.37388036
Cu     -1.97072696     -6.85709475     14.58069149
Cu     -3.00340219    -10.07733536     11.52636817
Cu      2.97162140     -6.93330343     14.87058799
Cu      1.05653118     -6.82919957     18.64364559
Cu      0.91713985     -7.32865987     10.66223141
Cu      0.25732084     -5.02137743     11.54101369
Cu      0.79908847    -11.08234029     13.77644515
Cu     -1.34702264     -3.19819750     11.90514477
Cu      4.65778726     -9.92677791     14.31776163
Cu      0.71263114     -3.20063132     13.19533030
Cu     -1.98673200     -8.75703667     18.37179611
Cu     -3.38963078    -10.96366040     13.78596197
Cu      4.15059143     -8.65932778     16.38875120
Cu     -2.98968906     -4.61699369     17.88241780
Cu     -1.23900574    -10.87215951     17.35639621
Cu      2.39136789    -10.35366913     17.01756201
Cu     -1.37944309    -11.47294644     14.97165355
Cu      2.63449993     -4.29624272     11.81976123
Cu     -1.20230689    -11.43145443     12.36483803
Cu     -6.42022177     -7.92406989     16.31924822
Cu     -3.53041685     -2.26856947     11.20120162
Cu     -0.51525701     -7.50349608     16.83813628
Cu      2.96915186     -8.44415606     18.64762838
Cu      0.17136388     -9.68205771     15.80183298
Cu     -5.04483887     -6.14629925     17.43454105
Cu     -5.41047185     -7.25957166     11.45023731
Cu     -3.74483339     -3.68792579     13.16899452
Cu      2.30600357     -4.65254791     14.33046885
Cu     -0.11787483     -4.30049444     18.13246726
Cu      0.55103599     -3.43252396     15.83023067
Cu     -1.61489097     -3.55924025     14.36338775
Cu      1.82705550     -5.27970914      9.61690194
Cu     -1.69588337     -2.83775626     16.70673991
Cu      1.83268891     -6.48676562     12.76040012
Cu      0.49813422     -9.21567173      9.15920407
Cu      5.27253724     -7.48476740     14.51880176
Cu     -1.32359659     -6.33679043     10.27398084
Cu     -4.30623058     -7.39824312     15.39828516
Cu     -0.64084645     -7.15036653     12.56678012
Cu     -4.19772630     -6.20049672     13.34489979
Cu     -3.66834109     -7.10931052     19.18934068
Cu      3.62888454     -8.25247591     12.79818719
Cu      2.96998565     -3.76464809     16.45834800
Cu     -5.97225293     -5.64271516     15.23004377
Cu      2.46779445     -1.84008579     12.29752659
Cu     -4.47571940     -4.99464143     11.22106206
Cu      0.52873474     -7.57751252     14.63746911
Cu      2.22180678     -4.73977636     18.51154437
Cu     -2.15951323     -5.34454645     12.42436040
Cu     -1.19581529     -5.19849631     16.22080254
Cu     -1.33901778     -6.28907791     18.86320911
Cu      1.17529048     -8.89807952     12.61911827
Cu     -3.62552592     -2.38027147     15.26363142
Cu     -0.34460084     -4.33314051      9.13367172
Cu      4.25405227     -5.77044781     12.98590794
Cu      0.12402068     -6.81937185      8.38792821
Cu      2.95422091    -10.67315991     12.61214555
Cu      3.37136866     -6.71282564     10.85631766
Cu     -4.29657651     -8.81850088     17.37404059
Cu      2.36211484     -9.32598740     14.69305390
Cu     -6.36802140     -5.29229855     12.82920903
Cu      0.49839636     -9.29692556     18.29275435
Cu      2.61919295     -9.13054338     10.63583971
Cu     -5.24733390     -9.56485374     12.36425589
Cu     -4.32812325     -8.88411955      9.93847334
Cu      4.11302840     -3.30000556     13.61504467
Cu     -3.49350936    -11.01664328     16.31948889
Cu     -2.33442035     -1.44588224     13.26499597
Cu      0.75471639    -11.97763323     16.14834445
Cu     -2.28171356     -9.03830207     15.82213193
Cu      1.81359510     -8.03431335     16.66112163
Cu      3.51737366     -6.35565018     17.24093224
Cu     -0.05322296     -1.14450494     12.10613393
Cu      2.93342071    -11.63686067     14.95252048
Cu     -5.10631760     -9.66286901     15.02946288
Cu      2.41570032     -7.58116810      8.73682147
Cu      2.26643777     -2.09279600     14.72678423
Cu      0.95176421     -2.86140333     10.61918898
Cu     -5.80283011     -3.08232679     11.90464094
Cu      4.60145711     -5.15565788     15.31817468
Cu     -1.36970621    -10.83463041      9.79840561
Cu     -0.28217065     -1.48197553     14.63372539
Cu     -1.28104503     -2.05856457      9.86184796
Cu     -5.05455101     -3.76549376     16.74634536
Cu     -1.97694348     -8.36727272      9.11198679
Cu     -2.77087410     -6.84640950     16.99869183
Cu     -2.03514799     -5.77139354      8.01536927
Cu     -0.86311753     -9.01658419     11.19527270
Cu     -0.02626346     -5.31450012     14.07211451
Cu     -3.42359800     -8.59052899     13.57031409
Cu      0.83714470    -10.81603069     11.12654055
Cu     -2.95330596     -7.56962886     11.51385879
Cu     -1.11488818     -9.35861856     13.65934426
Cu     -4.75187060     -1.41152360     13.27623077
Cu     -5.77713933     -3.37551623     14.39501218
Cu     -3.76262361     -6.54303209      9.48007532
Cu     -6.12745544     -7.71398325     13.78749553
