         100
Cu Cu     -308.278073        0.000000     -308.278073   0.09211
Cu      0.07194502    -10.50863615     17.50547645
Cu      4.20221451    -10.18582143     18.70780733
Cu      3.53467173     -4.46276277     12.38293428
Cu     -0.59615010     -1.25598889     12.08595292
Cu      4.87080615     -8.61416735     13.81170804
Cu      2.54713989     -3.08503145     14.22781662
Cu     -0.65817970     -8.91583443      9.85052642
Cu     -0.43945417     -6.53267491     15.91945806
Cu      1.31806015     -2.69864001     16.49059648
Cu      0.41300568     -8.16380608     18.19292785
Cu      4.64203882     -9.49993312     16.31541162
Cu     -2.41347272     -4.45545621      9.90401670
Cu     -2.10306454    -10.62617055     18.57966586
Cu     -1.08931308    -10.60940311     15.32491696
Cu      2.28592907     -8.83700163     19.69913944
Cu     -1.37742286    -12.44096150     16.98012148
Cu     -1.12450327     -2.17512243     16.10886638
Cu     -2.47130996    -12.54511191     14.78072738
Cu      1.97520919    -11.24066263     18.98421049
Cu     -2.19275147     -4.34455802     19.33635460
Cu      3.41292176    -11.62549389     16.84163048
Cu     -0.28281042    -12.25402032     19.18182003
Cu     -3.62059927     -2.74868270     15.82859046
Cu     -1.70195552     -9.61532984     12.05385400
Cu     -2.33446937     -4.37448313     14.66472361
Cu      3.70340633    -10.88144292     14.37193604
Cu      1.28533225     -4.95448044     13.02924347
Cu     -4.21545243     -3.34450815     13.38835786
Cu     -3.14612272     -8.70447859     10.29407933
Cu     -4.70573394     -5.00557039     15.23048833
Cu     -3.96857420     -4.51260722     17.53781532
Cu      0.36166339     -9.66529363     13.60519350
Cu     -2.62999475     -2.56151031     11.53420270
Cu     -3.98135549     -6.38287125     10.66104514
Cu     -3.47073211     -6.53162335     18.84822036
Cu      2.02416366     -7.11897507     16.67626553
Cu      1.10675014     -7.24992994     14.04685392
Cu     -3.23778668     -6.56562168     14.05018649
Cu      1.73739834     -4.60090746     10.45035830
Cu     -2.18000065     -1.96114385     13.91509191
Cu      3.36826177     -6.70571471     13.62287148
Cu      1.47118192     -2.70739166     12.04029433
Cu      0.02612974     -9.90459856     19.90972473
Cu      2.32490110     -9.48754546     17.31530291
Cu     -1.71963996     -8.67386035     16.92469216
Cu     -0.39060438     -3.10100037     10.45519074
Cu      2.73878141     -8.75394552     15.00987353
Cu      0.82349877     -5.03740661     17.34245465
Cu      5.39580530     -6.13896537     12.57372861
Cu     -0.22892192     -4.86141971      8.80657500
Cu      0.40920263     -1.89563145     14.20966029
Cu     -2.64120674     -2.38052265     18.01460422
Cu      4.22626131     -7.99918395     11.48566553
Cu     -2.79849012     -6.45339513     16.43634389
Cu      2.26738848     -3.71024687     18.63145679
Cu      3.94624320     -7.81497639     18.11478100
Cu     -4.10829120     -8.33672552     12.65766795
Cu      1.15741915    -12.70758021     17.15638383
Cu      0.21921392     -4.93504971     19.83104120
Cu     -1.08551304     -6.33503047     18.33167935
Cu     -5.55568694     -7.26838233     14.49332877
Cu      3.62594227     -3.31318705     16.40230012
Cu      0.55622653    -10.46148087     11.31945590
Cu      0.19511491     -7.96676245     11.88807267
Cu     -3.76804410     -8.55246800     15.46599600
Cu     -1.74068371     -6.76363682      9.50021981
Cu     -1.58628970     -4.38315045     16.94656292
Cu     -1.81369909     -6.26492949     20.72594968
Cu     -0.92885230    -11.68692467     13.04058601
Cu      4.58522476     -4.80157022     14.63545430
Cu     -0.75099707     -3.60177438     12.82304918
Cu     -3.10031641    -10.32723138     13.89856072
Cu      0.07580647     -4.19455932     15.07432131
Cu      4.42678877     -7.04582169     15.77691780
Cu      1.63692913    -11.71383691     13.16156296
Cu     -2.71776802     -4.92841313     12.25784767
Cu      4.03045479     -5.80014494     10.43616915
Cu      2.52924967     -9.23764032     12.66737168
Cu     -4.59421662     -3.97466139     10.98933451
Cu     -3.23676232    -10.76801918     16.42567671
Cu     -1.57411724     -8.32471444     14.27344749
Cu      1.47196303    -10.89859737     15.46612598
Cu      0.28063924     -7.41060228     20.46857012
Cu      2.15721660     -6.71094034     11.60670906
Cu     -5.06612881     -5.64234052     12.74323643
Cu      0.04817901    -12.82827325     14.94543029
Cu     -3.89154265     -8.79637297     17.94891080
Cu     -5.09859788     -6.84713320     16.90715081
Cu      2.53262108    -13.04698084     15.04286165
Cu      0.41790393     -8.75107997     15.82457332
Cu     -2.08469367     -7.24779469     11.89822917
Cu      2.03761305     -6.39397318     19.05443472
Cu     -0.22169962     -2.97855938     18.40701827
Cu      0.79568444     -6.89100426      9.57874998
Cu      2.28894991     -5.21230529     15.31254016
Cu      2.04713185     -8.81580621     10.31826502
Cu     -0.42292966     -5.50743555     11.21588171
Cu      3.62797224     -5.42407092     17.44604197
Cu     -1.85757828     -8.36713609     19.43735607
Cu     -0.87555585     -6.02047780     13.58241067
