         100
Cu Cu     -306.788424        0.000000     -306.788424   0.27371
Cu     -1.60078389     -9.58259742     18.93127359
Cu      3.52021903     -6.01371839     18.13351402
Cu     -1.01570701     -2.30683529     13.09484777
Cu     -1.46183121     -4.28931750     14.33301717
Cu      3.44799967     -3.20413711     14.23998433
Cu     -0.12290110     -7.29657500     16.59067781
Cu     -1.42582526    -10.73072106     13.95168904
Cu      4.92404926     -4.17532068     12.53367546
Cu     -3.62432419    -10.64449636     15.01810309
Cu      4.22568058     -4.39099828     16.18071696
Cu     -5.03458458     -9.05129745     13.88499985
Cu     -4.08554511     -5.87130642     16.81312148
Cu      1.72405939     -3.03078527     15.91651385
Cu      2.52126811     -3.84806223     17.95936241
Cu     -0.37867514    -13.08227181     14.27064814
Cu     -0.85757811     -7.97041870      8.14341128
Cu      2.15874461     -7.62279635     14.42272146
Cu      5.48149484     -6.53033281     12.02212336
Cu      6.32201499     -8.00388801     15.63120382
Cu      0.47461496     -9.47066830     17.40124997
Cu     -3.29218291    -10.65088033     17.46203237
Cu      1.32412830     -1.96622828     13.62581008
Cu      2.22605099     -7.86548641     19.24970709
Cu      0.98510858    -10.90883771     13.53670442
Cu     -2.05960536     -8.14504523     10.28126324
Cu     -1.37210497     -5.51622978     18.11344388
Cu     -4.51633156     -6.81005757     14.46900338
Cu     -0.88651149     -7.56054394     12.29525516
Cu      0.38662944     -8.93963627      9.97307352
Cu      5.06404496     -9.18672309     11.80730251
Cu      6.87776234     -8.10826707     13.24718563
Cu      2.87431428     -9.89823377     18.08976884
Cu     -3.90810955     -9.64082977     10.25820767
Cu     -2.16379246    -12.34450202     15.86883374
Cu     -2.45978849     -7.62466185     17.82101606
Cu     -0.11006713     -4.86208155     16.15042123
Cu      1.19453214    -11.02851639     11.09602484
Cu     -2.60795822    -11.73370218     10.83674475
Cu     -1.08685725     -9.94418524     11.68126626
Cu     -3.98388550     -8.46437986     16.14813130
Cu     -2.42259372     -5.94726407     11.08631749
Cu     -2.88409882     -3.77843527     12.30403221
Cu      2.26349039     -7.85820209     16.85020781
Cu      3.14388855     -9.64097904     13.39885005
Cu     -2.41023514     -3.95439770     16.55151832
Cu      3.69826083    -11.63284899     16.59541038
Cu      1.81148399    -12.65758271     15.31545071
Cu      2.05043074    -10.08758884     15.59678129
Cu      3.55644726    -11.36463523     11.78616771
Cu     -3.86575639     -4.47571753     10.00848060
Cu     -0.07794913    -13.50376473     16.67752034
Cu     -2.74637002    -12.58527820     13.33004369
Cu      3.72970185    -11.80228875     14.17262560
Cu      2.89626805     -9.38005921     10.50420233
Cu      0.81515630    -10.05308308     19.61223123
Cu     -3.90604568     -4.51009167     14.59380816
Cu      5.58158674    -10.10271299     14.02663882
Cu     -4.60382377     -5.58125769     12.19665033
Cu      0.05707023     -3.35348027     17.90978305
Cu     -3.72345913     -7.89899313     12.11603051
Cu      0.03120510     -8.84712617     14.57228023
Cu     -1.63264945    -10.20843026      9.17707920
Cu      3.23843324     -7.54678302     12.04041509
Cu      1.44164562    -11.79259953     17.67389949
Cu     -0.05559612     -6.42558806     14.25248629
Cu     -0.28229843     -6.48601684     10.10252685
Cu      1.09544961     -5.79408210     18.15197342
Cu     -0.19532344     -7.65938249     19.03668989
Cu     -2.47169406     -8.47162275     14.14035723
Cu     -1.32927366     -4.10011492      9.94106881
Cu     -3.24006091     -8.44005986      8.20880432
Cu     -2.49615718     -6.12868766     13.37227847
Cu      1.25893454     -4.67476172     10.15870509
Cu      1.16360596     -8.77296236     12.27772423
Cu      4.53742237     -7.56795825      9.98825509
Cu     -2.88745884     -2.33355858     14.64011217
Cu      4.24290680     -9.30935378     15.87760884
Cu      5.73231234     -5.68765278     14.36836474
Cu      4.24542613     -6.78117519     15.97092003
Cu     -4.31088139     -6.99024074      9.92344195
Cu     -1.67654597     -9.39957356     16.27399745
Cu      2.06187520     -7.11658202      9.90327021
Cu      4.58893636     -8.17017216     17.97710926
Cu     -0.56696289     -2.42330746     15.57310102
Cu     -0.99766756    -11.62939959     17.97432917
Cu      1.84309292    -12.94573646     12.78368431
Cu      2.44071026     -3.69096555     12.08966432
Cu      1.34138940     -6.16550081     12.17126175
Cu     -0.04966081    -11.18752702     15.80597269
Cu     -2.14089339     -6.43005189     15.68512553
Cu     -0.56941063     -4.75505742     12.13422046
Cu     -0.58698253    -12.32776121     12.04427551
Cu     -3.40621213    -10.28746973     12.57855316
Cu     -2.36032574     -6.09987135      8.68181353
Cu      2.13028199     -5.54945938     15.88035093
Cu      3.32514485     -5.59857859     13.65482407
Cu      4.61601265     -7.82441592     13.90991187
Cu      0.40070387     -2.68617238     11.23614554
Cu      3.56553430     -5.43495258     10.89526051
Cu      1.05366893     -4.30756149     13.95459540
