         100
Cu Cu     -308.388330        0.000000     -308.388330   0.12832
Cu     -2.04308096     -2.35935585     16.93198207
Cu     -4.19442363     -3.50749582     16.13050481
Cu      2.40933885     -6.35355312     13.07864618
Cu      0.97196119    -11.75321090     15.02896834
Cu      0.16369018     -9.84365125     13.48710848
Cu      0.22260359     -5.04077615     17.10074930
Cu     -3.16710521     -6.85436315     15.77577745
Cu      2.15713596     -8.46267339     14.40078815
Cu      3.45388667     -4.23281969     14.28365018
Cu      2.57009663    -10.51284752     13.20947798
Cu     -1.57368568     -0.46897376     13.13568535
Cu      0.92753496     -7.20986162     16.09755277
Cu     -1.47628940     -1.72367553     11.03235877
Cu     -5.41514996     -7.71170197     16.29365310
Cu     -2.97653690    -11.43311227     16.83896521
Cu     -1.04704155     -3.81035182     18.80260410
Cu     -4.49589881     -5.65367779     17.44694135
Cu      0.68526944     -9.60639029     16.03692911
Cu      4.72405942     -6.31471441     13.52542294
Cu     -1.46408750     -9.46412096     17.28585261
Cu      3.75732513     -4.53666270     11.89049405
Cu     -1.37631281    -10.85237549     15.14195391
Cu     -4.31617630     -7.85093383     13.87951888
Cu     -1.53282083     -8.19117635     19.54738620
Cu      1.77177148    -10.59692550     17.88950475
Cu     -4.89614289     -9.95481194     17.37921787
Cu     -0.39632406    -10.37367190     19.25294012
Cu     -0.75306633     -3.62826001     15.27719874
Cu     -6.33749833     -5.26540882     12.69839947
Cu     -3.52924540     -3.61014805     18.55076895
Cu      1.05896326     -2.11907037     11.11345742
Cu     -2.24507898     -4.81320903     16.90819609
Cu      1.50016359     -2.65888616     14.74615600
Cu     -0.47837563     -2.62586476     13.10727922
Cu     -2.62785371     -3.61188446      9.88580838
Cu      0.25727960     -7.28395243     13.55187986
Cu     -2.15529508     -6.99551972     13.32291416
Cu      0.40951067     -9.23889820      9.66774901
Cu      2.47301347     -4.13560754     16.63887310
Cu     -3.35114865     -8.00399462     11.40935400
Cu      0.74279062    -12.14552105     12.68112850
Cu     -0.47723966     -3.98694749     11.03352204
Cu     -2.87038041     -4.74705636     14.49487750
Cu     -3.48795178     -7.99544730     17.95000025
Cu      3.80750561     -8.39232813     12.45807226
Cu      0.49064106     -2.59978291     17.12892676
Cu     -4.77279746     -3.72025280     11.23690667
Cu     -1.23785249     -7.07026089     17.39219207
Cu     -1.19830750     -8.40798384     15.11406234
Cu      0.69147892     -8.36549580     18.29025368
Cu     -0.35758788    -11.66379405     17.18322174
Cu     -2.67377665     -2.26457067     14.44926198
Cu      1.46033239     -4.12776045     12.57948497
Cu     -2.55104523     -5.87953100     19.09507820
Cu     -2.22492286     -9.57177167      9.81165934
Cu      3.21669501     -6.39536586     15.55287194
Cu      1.82544041     -4.41843031     10.14776589
Cu      1.48764773     -8.51519143     11.82287214
Cu      1.77365699    -10.80150965     10.94102834
Cu      3.05253436     -6.60119113     10.79932327
Cu      0.53006455     -6.24379915     11.26472605
Cu     -5.68351769     -9.70641713     14.95741140
Cu     -0.92892696     -8.25799116     11.57397175
Cu     -4.44667217     -5.91543324     10.22334207
Cu      2.17619826     -6.26548536     17.97604610
Cu      1.34943370     -7.04926697      9.14349897
Cu     -4.96738387     -9.75965830     12.62169778
Cu     -1.67991183    -12.00421255     13.11353518
Cu      2.87177880     -8.47013282     16.95278881
Cu     -3.37070317     -9.28200515     15.66746643
Cu     -1.16207592     -7.41292342      9.27760381
Cu     -3.60786518     -7.78333461      8.94082034
Cu     -2.94227794    -10.20892149     18.99489904
Cu     -0.98008136     -6.03610443     15.25462768
Cu     -0.01952466     -6.11500450     19.29736386
Cu      0.96419811     -0.74544235     13.20411937
Cu      2.99719875    -10.47874286     15.63067587
Cu     -5.68703655     -7.49946727     11.75173884
Cu     -0.27289000     -5.17511697      8.98952645
Cu     -0.30602727     -2.72020902      9.06306536
Cu     -2.57764892     -3.71808052     12.32052534
Cu     -3.66615417     -1.61955964     12.23567371
Cu      2.93905795     -2.26663852     12.75351414
Cu      4.46000802     -8.46987516     14.89513117
Cu     -2.04070832     -5.88828481     10.98725632
Cu     -4.03635745     -5.72046387     12.58648410
Cu     -3.22934745    -10.99534651     11.50298915
Cu     -0.69500264    -10.68437996     11.34306112
Cu     -6.63816885     -7.45603706     14.05823223
Cu     -4.78678105     -9.49794432     10.20875620
Cu     -2.39011733     -9.50711879     13.21357814
Cu      1.20532275     -5.12138272     14.79411435
Cu     -3.76709793    -11.25147673     14.28696691
Cu      2.92330928     -8.87477407      9.94618852
Cu     -0.71915930     -5.07242472     13.11787311
Cu      1.43865826     -4.07466086     18.94080808
Cu     -0.48831065     -1.18426886     15.24094872
Cu     -4.80072099     -3.43982606     13.65376366
Cu     -2.64974961     -5.58905794      8.54441231
Cu     -5.16475036     -5.61237609     14.90954300
