         100
Cu Cu     -309.114860        0.000000     -309.114860   0.05033
Cu     -2.02484208     -7.36264696      8.89851757
Cu     -1.09586078     -2.61989815     12.31018837
Cu      3.57052458     -4.26120834     12.59389690
Cu      2.85173997     -9.53623908      5.71457321
Cu     -2.97118444     -5.04462013      9.51206623
Cu      6.35635830     -2.45822783      6.66129226
Cu      1.20593832     -8.69927514      9.62135376
Cu      0.03404053     -0.43828371      4.56746498
Cu     -0.64857390     -5.29139433      3.61991262
Cu     -0.57225621     -5.05500484     12.84112558
Cu      4.90366067     -8.09307824      6.41528868
Cu      1.50723989     -2.39162245      4.91968155
Cu      1.50869485     -6.52466463      3.17976551
Cu      3.41132206     -2.57736376      3.41300227
Cu     -0.88388945     -5.20676375      8.24399743
Cu      5.38206505     -4.64608222      6.91606090
Cu      5.61182257     -3.65457768      4.47790888
Cu     -1.90869620     -0.87106534      8.20368622
Cu      2.14002192     -7.36095731     11.51189398
Cu      4.09634277     -1.03776097      9.92694348
Cu     -2.90132707     -5.85092697      7.01922379
Cu     -2.40798141     -4.20553776      5.16182483
Cu      0.94787680     -2.60050709     10.94865488
Cu      6.85711670     -6.57093563      7.14997651
Cu      1.89704358     -1.65381566      8.91326699
Cu      7.46299530     -4.20418394      8.14181554
Cu      2.12269257     -6.48808002      9.24684440
Cu      1.62791254    -10.26369815      7.85252026
Cu      4.20839241     -2.55291974      7.95894623
Cu      4.71349629     -1.39386165      5.19091244
Cu     -2.48820323     -2.58976264     10.07640094
Cu     -1.85197252     -1.69172905      5.81229741
Cu      1.30753199     -5.57722263      7.18430692
Cu     -0.01275341     -7.44013240     12.57143473
Cu      5.53993861     -7.64668603     11.11935126
Cu     -0.38977511     -3.64411432      6.29758753
Cu      1.52583343     -8.97966128      3.74083737
Cu      2.57411888     -0.28900251      4.33307210
Cu      5.20749569    -10.07566022     10.34074960
Cu      6.84259818     -6.16537181      9.63962095
Cu      1.24898278     -3.35038343     13.24761924
Cu      1.20668723     -1.52570156      2.67519510
Cu      3.20674281     -3.37743418     10.25412907
Cu      2.97442622     -1.81374054     12.12374146
Cu      3.69815293     -9.16252733     12.08090763
Cu      5.36454370     -4.27724397      9.41426276
Cu      1.76561030     -3.21780156      7.17029308
Cu      2.83695217      0.56008003      8.43391444
Cu     -0.62379018     -2.84108504      3.92012797
Cu      5.02939494     -0.36729000      7.53929572
Cu     -2.50996143     -3.37518908      7.61938405
Cu     -0.69475420     -6.03733347      5.90999356
Cu     -1.85963415     -8.11463461      6.43646047
Cu      3.56838253     -5.09873772      3.76534086
Cu      1.40085179     -3.95180120      2.76194499
Cu     -0.67812716     -0.88328624     10.49639039
Cu      1.17141726     -4.29068954      9.22917035
Cu      3.58021300     -3.53010581      5.71175153
Cu     -0.41646049     -2.63999638      8.72013457
Cu     -2.67245982     -6.57332626      4.61612128
Cu      2.64605127     -7.98824751      7.50523988
Cu      5.29451235     -2.77432900     11.37900999
Cu     -0.85196574     -9.63636246      8.29156777
Cu      7.43972229     -3.80099381     10.56304289
Cu      1.75318018     -5.86677253     13.64210022
Cu      2.77720368    -10.54254078     10.12841304
Cu      3.47954775     -6.02841918      6.11835003
Cu      5.87361696     -5.19594836     11.82200163
Cu      1.41492604     -4.81371953      4.96913530
Cu     -0.02776875     -6.59677191     10.20224548
Cu      0.33194875    -10.93345998      9.97252359
Cu      1.76943181     -0.10515902     10.71424592
Cu      2.81247315     -1.07714822      6.62622287
Cu      3.89807502     -5.79971776     10.64140344
Cu     -2.09566095     -6.52443108     11.36645649
Cu      1.45065427     -7.30165770      5.48969483
Cu      4.13031072     -9.91728509      8.01781471
Cu      3.66552098     -8.29059589      9.76861648
Cu      1.51272438     -5.02187322     11.43643817
Cu     -1.06834464      0.65477239      6.50313060
Cu      0.32200513     -1.30584849      6.83637107
Cu      1.18055589     -9.60776371     11.89471725
Cu     -0.85033067     -4.32903232     10.56350442
Cu      0.16858211     -7.55956455      7.74887243
Cu      3.32674119     -4.71585828      8.19315835
Cu      0.34824679      0.31477115      8.60610867
Cu      4.70950976     -6.59971308      8.38705295
Cu      0.67190501     -0.96255592     12.71645846
Cu      5.62613143     -6.12775241      4.94651549
Cu      4.01903749     -6.75073185     12.93574156
Cu      6.09837794     -8.48839695      8.73340078
Cu     -0.57198267     -7.77590568      4.17996932
Cu      7.48602924     -4.59986487      5.71680687
Cu      1.39036350      0.84484906      6.31438564
Cu      2.11028769     -8.26619990     13.76299782
Cu      3.57491135     -7.60911972      4.25412470
Cu     -2.86697936     -4.27394781     11.90900773
Cu      0.29426101     -9.35260648      5.98937564
Cu     -0.97475688     -8.84205034     10.69566854
Cu      6.31622961     -2.04284583      9.13673781
