         100
Cu Cu     -307.899123        0.000000     -307.899123   0.20479
Cu      4.29201046     -1.85690274     12.56992441
Cu      6.56062783      1.76655342      8.73579789
Cu      1.98018615     -5.21312304      4.04829593
Cu      4.38930478     -2.29928717     10.04771212
Cu      4.08154126     -4.05303118     13.71405161
Cu     -0.73013986      0.61156365      4.30052088
Cu      2.86821695      0.05415296     13.41275250
Cu      1.06092920      3.97680216      6.45807638
Cu      7.18973383     -0.69310257      8.30052508
Cu      5.09025736      0.41503364     12.19057929
Cu     -0.53415192     -2.72759263     13.02552840
Cu     -2.68410106     -1.87180369      9.98302082
Cu      0.96121616      1.72181588     13.52007861
Cu      1.25981428     -6.84598054      8.43220351
Cu      7.34553393     -2.81690809      7.01081663
Cu      3.14425068      2.09685664     12.24552308
Cu     -1.02744673      1.08149910      8.02833231
Cu     -1.66469526     -3.88342657     10.94281582
Cu      3.95394647      1.98206415      8.22688451
Cu      1.79036679     -5.95336854     11.86976244
Cu      1.94988865     -2.24800082      9.81548441
Cu     -2.97203729      2.27016942      7.27135434
Cu      0.62918362     -0.69342351     14.06864770
Cu      5.65976105      2.92943400      6.74632728
Cu      2.07632721     -4.86409204      9.60446891
Cu      1.30663235      1.92240230      4.91048794
Cu      1.17401616      4.12799371      9.15164400
Cu      3.13646142     -0.32610182     10.93365890
Cu     -0.81384239      2.35637894      5.99513218
Cu      4.44323764     -0.86760602      4.36963918
Cu      1.21966823     -2.01819145      7.45903465
Cu      5.17862578     -1.92525807      7.70509850
Cu      3.24284378      1.10354278      3.68682941
Cu     -2.23443088      0.15857321      6.14079541
Cu      3.19346613     -6.93463648     10.08038745
Cu      1.68134780     -0.81152671      4.58477156
Cu      1.53657375      2.06731239      7.72989415
Cu     -2.45187595      2.40513254      9.67112813
Cu      0.86759511      0.39894811     11.56107208
Cu      3.17391751      4.21851967      7.79460472
Cu     -2.41603538     -3.76382838      8.42814885
Cu      2.68818946     -2.13896879     14.48546344
Cu     -1.54766463      0.27523223     10.27467035
Cu      5.38315080     -3.02157797      5.43351727
Cu      3.09972576     -0.49945667      8.33779298
Cu     -0.50426425     -5.26409415     12.69488040
Cu     -0.91985793      3.56852958      8.07922982
Cu     -1.01870520      2.05207054     11.98501549
Cu     -3.18238312      0.00375577      8.41042831
Cu     -0.19106684     -1.37053249      3.03180653
Cu      5.22236546      0.36714318      7.10834613
Cu      6.57874783     -3.13194927      9.35535678
Cu      0.62876843      0.23448817      6.56009184
Cu      1.57666726     -4.09375810     13.54788154
Cu      3.04685019      0.55018341      6.10936270
Cu      4.88560668      2.16481700     10.53575503
Cu      3.44574505     -4.50697165      5.88291621
Cu      3.38835050     -3.03201465      3.89261661
Cu     -2.42677084     -1.39898439      4.13717606
Cu      5.32948300      3.94021684      8.93049147
Cu      1.07678067      0.70983376      2.69970735
Cu      5.48314582     -4.41161089      7.47050106
Cu      2.66902521     -1.14550640      2.47042657
Cu      7.41897477      1.17604587      6.52873930
Cu      1.30438574     -3.20977015      5.24870324
Cu     -0.32029596     -1.72779933     10.70734736
Cu     -0.99514523     -3.49089251      4.21386345
Cu      1.22795483     -3.23330095      2.81576070
Cu     -0.87241612     -5.66083841      7.80313983
Cu      1.38481872     -4.64947523      7.27396700
Cu      5.66946590     -3.72289255     11.72029752
Cu      1.72328036     -1.84834428     12.26760074
Cu      3.30876445     -3.40786758      8.11486693
Cu     -2.46647708     -4.69547926      5.97369984
Cu      0.05235984      2.08388448      9.83408142
Cu      1.15576136      3.30961788     11.59031517
Cu      2.39315655      1.73052114      9.98986296
Cu     -1.11567421     -1.40527571      8.13310268
Cu      3.38918840      2.87925382      5.77927208
Cu      3.26928951     -1.93019070      6.16222464
Cu      0.82158506     -0.13461446      9.12658974
Cu      6.41001309     -1.39570278     11.11078969
Cu     -0.05513189     -3.57674103      9.04592770
Cu      4.27960387     -5.83059411     12.01060317
Cu     -1.25261396     -0.38308888     12.58752847
Cu      0.74079939     -3.82442592     11.29647344
Cu      2.00476330     -6.63846349      6.05757760
Cu      3.12718355     -3.77029174     11.52912619
Cu      3.28236720      3.97755545     10.34055101
Cu     -0.07918960     -5.45276989      5.41491476
Cu      4.61565460     -4.80913282      9.77278833
Cu      5.35956755      1.34090284      4.93078059
Cu     -0.17641972     -5.82111288     10.22393553
Cu      3.55037618     -5.97765375      7.85111000
Cu     -0.50517658     -1.49796005      5.52574233
Cu      6.59039167     -0.92577582      5.65853735
Cu     -2.76419470     -2.23180948      6.47635847
Cu     -0.94028414      4.14876514     10.54523996
Cu      5.15889691     -0.02434252      9.56018413
Cu     -0.65059882     -3.46629043      6.73882734
